46
Energy = -1518.393963835
N     3.2036838   -2.5083927    0.9587530 
C     3.0346424   -1.1319901    0.5352963 
C     4.0961061   -0.7966854   -0.5103127 
C     4.0669563    0.6498795   -0.9669221 
S     5.3320439    1.0739331   -2.1778966 
C     6.8096861    0.9774971   -1.1608324 
C     1.6531682   -0.8804515   -0.0598753 
O     1.1938442   -1.6154929   -0.9205469 
N     0.9900568    0.1938754    0.4055047 
C    -0.2852514    0.5966610   -0.1277369 
C    -1.4326794   -0.2417406    0.4551758 
C    -2.7657182   -0.0760034   -0.2491968 
C    -3.7810962   -1.0936354    0.2486479 
N    -5.0870097   -0.8972043   -0.3298664 
C    -5.9499807    0.0603433    0.1558058 
N    -5.7332736    0.9108961    1.0823673 
N    -7.1834310    0.0285881   -0.4768234 
C    -0.4477009    2.0649455    0.1854108 
O     0.1763070    2.6446320    1.0353017 
O    -1.3765138    2.6508892   -0.5700853 
H     2.5608590   -2.7303015    1.7085277 
H     2.9610504   -3.1151300    0.1832292 
H     3.1786484   -0.4864376    1.4085639 
H     5.0635809   -1.0454345   -0.0711237 
H     3.9522183   -1.4517455   -1.3733748 
H     4.1519552    1.3353497   -0.1174164 
H     3.1236396    0.8797724   -1.4678428 
H     7.0055454   -0.0378417   -0.8170310 
H     6.7398470    1.6518189   -0.3058498 
H     7.6418952    1.2959235   -1.7879279 
H     1.4048578    0.8058715    1.0901860 
H    -0.2770741    0.4586973   -1.2122435 
H    -1.5234756   -0.0202382    1.5236363 
H    -1.1057680   -1.2802379    0.3676701 
H    -2.6361643   -0.2144191   -1.3256971 
H    -3.1644811    0.9294918   -0.1078529 
H    -3.8336584   -1.0661293    1.3463878 
H    -3.4453907   -2.0965129   -0.0200856 
H    -5.5346556   -1.7121211   -0.7108902 
H    -4.8457872    0.7446099    1.5417629 
H    -7.1403781   -0.0892214   -1.4765598 
H    -7.7524908    0.8130375   -0.2025386 
H    -1.4504189    3.5681613   -0.2764774 
C    -0.5235592   -3.2415982   -2.4148868 
O     0.3856842   -3.7325880   -2.9296255 
O    -1.4657305   -2.7791997   -1.9231498 
