41
Energy = -806.3775536631
N     1.9736469    0.2784539   -1.8584020 
C     1.8718836   -0.2031420   -0.4988273 
C     2.2364567    0.8744276    0.5391870 
C     1.4522403    2.1624015    0.3276234 
C     3.7431771    1.1169330    0.6641067 
C     4.4353930    1.8030003   -0.5035622 
C     0.5447810   -0.8542154   -0.0879292 
O     0.4515969   -1.4818901    0.9527029 
N    -0.4951497   -0.6780228   -0.9339710 
C    -1.7014687   -1.4539742   -0.8335492 
C    -2.9600759   -0.6437880   -0.4859993 
C    -3.1167930   -0.2059054    0.9727238 
C    -3.1014657   -1.3900610    1.9295558 
C    -2.1195730    0.8559376    1.4140351 
C    -1.9124267   -2.1478753   -2.1612281 
O    -1.3559906   -1.8495689   -3.1853920 
O    -2.8180532   -3.1284044   -2.0839658 
H     1.7723498   -0.4307597   -2.5480823 
H     1.4088740    1.0956536   -2.0357740 
H     2.5966971   -1.0151555   -0.3789250 
H     1.9199342    0.4459297    1.4942732 
H     0.3766661    1.9772226    0.2991380 
H     1.7356290    2.6711128   -0.5962850 
H     1.6443413    2.8593863    1.1456130 
H     4.2256164    0.1529366    0.8550368 
H     3.9008587    1.7133297    1.5693886 
H     4.0302388    2.8014509   -0.6818787 
H     4.3230205    1.2332136   -1.4248961 
H     5.5007196    1.9200627   -0.2944084 
H    -0.2909012   -0.2989609   -1.8448104 
H    -1.5375718   -2.2177015   -0.0697363 
H    -2.9910277    0.2330185   -1.1409521 
H    -3.8246327   -1.2615279   -0.7414957 
H    -4.1151518    0.2456861    1.0175635 
H    -3.8009043   -2.1697282    1.6178313 
H    -2.1022525   -1.8266881    1.9961900 
H    -3.3826376   -1.0715137    2.9352111 
H    -1.1187461    0.4369853    1.5198759 
H    -2.0776965    1.6868808    0.7061024 
H    -2.4070028    1.2607304    2.3868576 
H    -2.9145993   -3.4958706   -2.9713460 
