43
Energy = -1156.225860611
N    -0.1784329   -0.0471935   -2.9479552 
C    -0.1403683   -1.1075490   -1.9665175 
C     1.2732456   -1.3075333   -1.4230174 
C     1.8180466   -0.1040527   -0.6725519 
C     3.1897663   -0.3793875   -0.0894202 
N     3.6965448    0.7829829    0.5961312 
C     4.9595247    0.7696775    1.1539406 
N     5.8483101   -0.1380201    1.0513746 
N     5.2146317    1.9097146    1.9027433 
C    -1.1102706   -1.0178519   -0.7893364 
O    -1.2180178   -1.9263974    0.0180728 
N    -1.8406905    0.1135125   -0.6779373 
C    -2.8981724    0.1922519    0.2922252 
C    -3.6991866    1.4777969    0.0234955 
O    -4.0484894    1.5559932   -1.3416469 
C    -4.9007994    1.6215557    0.9339889 
C    -3.8214644   -1.0056496    0.1604460 
O    -4.2888322   -1.3578948   -0.8963379 
O    -4.1197531   -1.5682800    1.3230065 
H    -1.0507175   -0.0034659   -3.4532033 
H     0.0425444    0.8619934   -2.5699684 
H    -0.4268550   -2.0334784   -2.4731560 
H     1.2551938   -2.1748244   -0.7600595 
H     1.9248488   -1.5433901   -2.2675254 
H     1.8938874    0.7643315   -1.3339544 
H     1.1310670    0.1660242    0.1386753 
H     3.8831835   -0.6326224   -0.8970108 
H     3.1364992   -1.2550574    0.5737653 
H     3.0145392    1.2775553    1.1492498 
H     5.4884680   -0.9645367    0.5893606 
H     6.1798676    1.9449694    2.1889945 
H     4.9077215    2.7680875    1.4730940 
H    -1.9275256    0.7145158   -1.4817677 
H    -2.4919633    0.2074601    1.3044465 
H    -3.0141455    2.3135651    0.1936229 
H    -4.4939081    0.7333162   -1.5796503 
H    -5.3895072    2.5758652    0.7415591 
H    -4.6073353    1.5830164    1.9846458 
H    -5.6294594    0.8275751    0.7553643 
H    -4.6656380   -2.3450195    1.1405334 
C    -2.9590341   -4.0498255   -1.1163933 
O    -2.4506006   -3.8551213   -2.1358818 
O    -3.4809948   -4.2795430   -0.1090682 
