33
Energy = -1116.243892077
N    -2.1691742   -0.0670341    1.0911398 
C    -1.9250650   -0.8598977   -0.0949872 
C    -2.5729606   -0.3738121   -1.3871453 
C    -2.0589966    0.9595296   -1.8352840 
O    -1.2727473    1.6515505   -1.2324530 
O    -2.5826453    1.3349240   -3.0028580 
C    -0.4274326   -1.0586468   -0.3385336 
O    -0.0038546   -1.3892755   -1.4346933 
N     0.3483541   -0.8658300    0.7352118 
C     1.7759720   -0.9671848    0.6587275 
C     2.4049257    0.2270823   -0.0854535 
C     2.2569531    1.5076809    0.7086968 
O     3.0186321    1.7718070    1.6232185 
N     1.2339230    2.3089710    0.3555703 
C     2.3241740   -1.0556620    2.0645477 
O     1.6698451   -0.8462007    3.0518546 
O     3.6154230   -1.3656246    2.0697783 
H    -3.1135298   -0.1772479    1.4291000 
H    -2.0004921    0.9132131    0.9079376 
H    -2.3131245   -1.8652253    0.0991201 
H    -3.6577243   -0.2978969   -1.2734898 
H    -2.3856832   -1.0817133   -2.1963171 
H    -2.2030320    2.1942949   -3.2261261 
H    -0.0821146   -0.5838786    1.6052395 
H     2.0485200   -1.8728753    0.1113067 
H     3.4706206    0.0419981   -0.2099917 
H     1.9324970    0.2829500   -1.0659134 
H     0.5285178    2.0280091   -0.3063103 
H     1.0646404    3.1192934    0.9258368 
H     3.9523470   -1.1991957    2.9618441 
C     3.2553379    1.2141552    4.4808031 
O     4.1475883    0.4875684    4.3297240 
O     2.3848518    1.9429332    4.6813889 
