46
Energy = -1050.167394426
N     2.6432345    2.1742650   -0.0213974 
C     2.0599092    0.8582568   -0.1766200 
C     3.0418993   -0.2526530    0.2136291 
C     4.1569644   -0.5441354   -0.7908893 
C     4.7702737   -1.9071005   -0.4966899 
C     5.2386130    0.5264246   -0.8147718 
C     0.8000653    0.6843051    0.6713912 
O     0.6428670    1.2762261    1.7241717 
N    -0.1053936   -0.1978177    0.1902809 
C    -1.2359536   -0.6058387    0.9762067 
C    -2.4691673    0.2803085    0.7718232 
C    -3.0287054    0.2152944   -0.6388533 
C    -4.2379987    1.1137529   -0.8626457 
C    -5.4150435    0.8156810    0.0534441 
N    -5.8406966   -0.5717834   -0.0684764 
C    -1.5357278   -2.0530575    0.6734031 
O    -0.9376855   -2.7387416   -0.1136099 
O    -2.5726609   -2.5110627    1.3847910 
H     2.6871168    2.3815936    0.9709065 
H     2.0252164    2.8717906   -0.4167525 
H     1.7929742    0.7202654   -1.2298204 
H     3.4735709   -0.0056688    1.1904862 
H     2.4681809   -1.1731990    0.3633755 
H     3.6961535   -0.5884743   -1.7860063 
H     5.5563728   -2.1478017   -1.2154476 
H     4.0259095   -2.7067533   -0.5309413 
H     5.2205098   -1.9191105    0.5001727 
H     4.8231792    1.5095342   -1.0272331 
H     5.9991532    0.2875023   -1.5620286 
H     5.7360201    0.5812756    0.1585131 
H     0.1084633   -0.7287745   -0.6385818 
H    -0.9508760   -0.5413592    2.0315687 
H    -2.1678773    1.3006395    1.0201268 
H    -3.2223154   -0.0152051    1.5051085 
H    -2.2442512    0.4920691   -1.3486434 
H    -3.3049791   -0.8162096   -0.8853507 
H    -3.9460609    2.1601718   -0.7256913 
H    -4.5678307    1.0039962   -1.8989585 
H    -5.1612847    1.1054476    1.0840672 
H    -6.2537911    1.4499285   -0.2435271 
H    -5.1660291   -1.1903409    0.3633398 
H    -6.7147855   -0.7173791    0.4177432 
H    -2.6930902   -3.4369833    1.1391206 
C     1.2632144   -2.9873443   -1.9997705 
O     1.0619480   -1.8896246   -2.3151287 
O     1.4867765   -4.0794354   -1.7032280 
