33
Energy = -801.5655393716
N    -0.6429947    2.4079562   -0.9497860 
C    -0.3754467    2.1953153    0.4529537 
C    -1.6279719    1.6480924    1.1560405 
C    -2.0444824    0.3052880    0.6310105 
C    -2.9362368    0.1952759   -0.4335934 
C    -3.2757946   -1.0456919   -0.9535032 
C    -2.7304569   -2.1995781   -0.4115674 
C    -1.8497303   -2.1037488    0.6565915 
C    -1.5114671   -0.8628665    1.1724409 
C     0.8207468    1.3155439    0.8293940 
O     1.1842308    1.2103078    1.9892651 
N     1.4301383    0.6758801   -0.1847614 
C     2.5736993   -0.1666392    0.0214300 
C     2.2035993   -1.5452381    0.5671212 
C     3.2952850   -0.2882869   -1.2976273 
O     2.8647656    0.0950959   -2.3531647 
O     4.4763512   -0.8999418   -1.1686654 
H     0.1398269    2.8028803   -1.4494774 
H    -0.9601150    1.5688125   -1.4162259 
H    -0.1540782    3.1652028    0.9083446 
H    -1.4068421    1.5840738    2.2215047 
H    -2.4289656    2.3747080    1.0117888 
H    -3.3718127    1.0953407   -0.8537025 
H    -3.9730427   -1.1106279   -1.7802418 
H    -2.9974509   -3.1694373   -0.8131931 
H    -1.4278340   -3.0009791    1.0938686 
H    -0.8250289   -0.7894503    2.0082408 
H     1.1224590    0.8121386   -1.1332788 
H     3.2439429    0.3184208    0.7374132 
H     1.5231953   -2.0560720   -0.1158230 
H     1.7054451   -1.4136937    1.5258509 
H     3.0951964   -2.1545028    0.7106413 
H     4.8606695   -0.9634783   -2.0517890 
