36
Energy = -874.1197643925
N     2.8813911   -1.2869584   -0.4065177 
C     2.2072008   -1.3460546    0.8849286 
C     2.3704297   -0.0391474    1.5856055 
C     2.3545644    0.3241020    2.9048437 
N     2.4791706    1.6809443    3.0311735 
C     2.5701421    2.1388723    1.8093128 
N     2.5086160    1.1382998    0.8979624 
C     0.7114277   -1.6416702    0.7106625 
O     0.0823118   -2.2214654    1.5740645 
N     0.1727423   -1.1828208   -0.4320461 
C    -1.2154522   -1.3860826   -0.7453115 
C    -2.1929484   -0.5138701    0.0626001 
C    -2.1936686    1.0068315   -0.1150160 
C    -2.6872940    1.4681207   -1.4806366 
C    -0.8692706    1.6743568    0.2305545 
C    -1.3719111   -1.2682028   -2.2395095 
O    -0.5070159   -0.9137767   -2.9973506 
O    -2.5942644   -1.6266494   -2.6429334 
H     2.8178602   -2.1762962   -0.8846457 
H     3.8645329   -1.0864865   -0.2749111 
H     2.5649057   -2.1381561    1.5508448 
H     2.2510552   -0.3212794    3.7623908 
H     2.6892680    3.1733469    1.5272329 
H     2.5523372    1.2113615   -0.1032882 
H     0.7777395   -0.8073476   -1.1470200 
H    -1.4738278   -2.4199735   -0.4881329 
H    -1.9833640   -0.7495190    1.1078859 
H    -3.1971587   -0.8909698   -0.1478566 
H    -2.9265754    1.3560868    0.6220592 
H    -1.9623364    1.2499006   -2.2682696 
H    -2.8386638    2.5495822   -1.4821414 
H    -3.6347225    0.9959518   -1.7480126 
H    -0.9977584    2.7571843    0.2939416 
H    -0.1174404    1.4802210   -0.5363206 
H    -0.4718880    1.3255352    1.1852255 
H    -2.6201346   -1.5140712   -3.6010690 
