47
Energy = -1026.438745022
N     1.3038402    0.7662684    0.1541239 
C     1.0735338   -0.5825489   -0.3196202 
C     2.1616135   -1.5316458    0.1802023 
C     3.5632191   -1.1266695   -0.2663068 
C     4.3103866   -0.2793075    0.7573960 
N     5.4908372    0.3379299    0.2015343 
C     5.3772402    1.5021340   -0.5349772 
N     4.3099658    2.0939679   -0.8983408 
N     6.6183523    2.0324063   -0.8682376 
C    -0.2911241   -1.2146014   -0.0320862 
O    -0.5552588   -2.3374493   -0.4156409 
N    -1.1791483   -0.4478692    0.6470784 
C    -2.4021138   -1.0019898    1.1686046 
C    -3.3944755   -1.4437318    0.0910243 
C    -3.6600063   -0.3745747   -0.9565066 
C    -4.2358897    0.9221911   -0.4112928 
C    -4.6080404    1.9089648   -1.5108497 
N    -5.1582642    3.1796662   -1.0752623 
C    -2.0767881   -2.0858965    2.1903329 
O    -1.0326419   -2.1821167    2.7714550 
O    -3.1222331   -2.8880021    2.4298747 
H     1.2854124    0.8432181    1.1615841 
H     0.6936919    1.4548052   -0.2604321 
H     1.1439090   -0.5563513   -1.4125490 
H     1.9070214   -2.5249140   -0.1868984 
H     2.1052805   -1.5910958    1.2745430 
H     3.5025289   -0.5661567   -1.2025232 
H     4.1630477   -2.0149851   -0.4776224 
H     4.6233013   -0.9093123    1.5928008 
H     3.6393549    0.4827410    1.1690756 
H     6.3239505    0.2876880    0.7621232 
H     3.4748720    1.6678057   -0.5068668 
H     7.2918226    1.3487491   -1.1764433 
H     6.5175458    2.7917636   -1.5225374 
H    -0.8259650    0.3955807    1.0599518 
H    -2.8751072   -0.2082805    1.7572076 
H    -3.0103124   -2.3424076   -0.3891150 
H    -4.3263948   -1.7128755    0.5921985 
H    -2.7359566   -0.1618977   -1.5021847 
H    -4.3550773   -0.7907325   -1.6924645 
H    -3.5161818    1.4075954    0.2591773 
H    -5.1253427    0.7077389    0.1942411 
H    -3.7245547    2.1149583   -2.1236384 
H    -5.3330956    1.4396049   -2.1833362 
H    -4.5017529    3.6676954   -0.4796729 
H    -5.9961093    3.0349254   -0.5265824 
H    -2.8390930   -3.5128858    3.1088583 
