23
Energy = -719.8818515121
N     3.4838704   -0.0699427    1.1073589 
C     2.1798586    0.5394316    1.1750554 
C     1.0882916   -0.2096581    0.4196204 
O     1.2249784   -1.3646403    0.0584273 
N    -0.0510515    0.4866731    0.2126913 
C    -1.1724423   -0.1025944   -0.4653321 
C    -2.0029985   -1.0097620    0.4424752 
C    -2.0222348    1.0049735   -1.0324475 
O    -1.8906247    2.1759305   -0.7849183 
O    -2.9769969    0.5391531   -1.8405274 
H     3.3851051   -1.0643701    1.2751829 
H     3.8460443    0.0052922    0.1654235 
H     1.8593176    0.5973802    2.2215237 
H     2.2309609    1.5726206    0.8223978 
H    -0.1060375    1.4643230    0.4514007 
H    -0.7998586   -0.7050972   -1.2993480 
H    -1.3555403   -1.7958006    0.8277048 
H    -2.8230824   -1.4661058   -0.1106467 
H    -2.4101058   -0.4430447    1.2814146 
H    -3.4923757    1.2986035   -2.1398573 
C    -0.5525796    4.3985164    0.4814646 
O     0.2024899    3.6450816    0.9365808 
O    -1.2885937    5.1711812    0.0436753 
