33
Energy = -1133.212361367
N    -2.5289839    2.2789122    0.6633952 
C    -1.8841713    0.9868486    0.7877192 
C    -2.7472636   -0.0722399    0.1657134 
C    -2.5408561   -1.3308424   -0.3385204 
N    -3.7255328   -1.8811231   -0.7468883 
C    -4.6354497   -0.9742724   -0.5000921 
N    -4.0929201    0.1335807    0.0567183 
C    -0.4963344    0.9637577    0.1393082 
O    -0.1520222    1.8190955   -0.6542743 
N     0.3013537   -0.0559795    0.5096963 
C     1.5529883   -0.3074141   -0.1519716 
C     2.6555672    0.6561555    0.2914030 
C     3.7613907    0.7681483   -0.7191010 
O     3.6226509    0.6583367   -1.9064865 
O     4.9340679    1.0606405   -0.1439009 
C     1.9189654   -1.7485531    0.1216836 
O     1.2253800   -2.5169469    0.7327541 
O     3.1094677   -2.0689310   -0.3817336 
H    -2.2854151    2.6624541   -0.2449970 
H    -2.1476217    2.9199975    1.3459283 
H    -1.7650594    0.7702923    1.8562291 
H    -1.6136739   -1.8738980   -0.4311392 
H    -5.6903237   -1.0636800   -0.7078143 
H    -4.5304258    1.0045518    0.3080582 
H    -0.0585099   -0.8109725    1.0744217 
H     1.4365618   -0.1904183   -1.2356064 
H     3.0549015    0.4032654    1.2731864 
H     2.2112577    1.6530176    0.3562169 
H     5.5734091    1.1777986   -0.8580510 
H     3.2730339   -2.9969404   -0.1716482 
C     1.6538690    2.8821746   -2.5998060 
O     1.1134092    2.3208721   -3.4520649 
O     2.2068713    3.4699385   -1.7685229 
