32
Energy = -837.7307067875
N     3.6485629    0.4838795    0.8253122 
C     2.6880204    0.6186431   -0.2494039 
C     3.3175632    0.1735154   -1.5638024 
C     1.4237147   -0.2075707   -0.0135482 
O     1.4475411   -1.2605496    0.5998357 
N     0.2926132    0.2901238   -0.5590333 
C    -0.9447585   -0.4398671   -0.5102442 
C    -1.6846508   -0.2228768    0.8334296 
C    -2.2170184    1.1945506    0.9653612 
C    -2.7609819   -1.2632367    1.0923297 
C    -1.7726023   -0.0239624   -1.6993122 
O    -1.5792656    0.9647956   -2.3599490 
O    -2.7785599   -0.8654342   -1.9480800 
H     3.7594761   -0.5044761    1.0264128 
H     3.2772821    0.8926301    1.6738496 
H     2.4104911    1.6737261   -0.3325918 
H     3.5949901   -0.8813227   -1.5057830 
H     4.2182909    0.7572708   -1.7510042 
H     2.6297699    0.3001795   -2.4014631 
H     0.3177303    1.1429400   -1.0947282 
H    -0.7215673   -1.5068035   -0.5933879 
H    -0.8933067   -0.3709629    1.5733344 
H    -3.0424467    1.3780686    0.2715541 
H    -2.5943257    1.3667723    1.9745566 
H    -1.4399686    1.9356645    0.7692527 
H    -3.1465643   -1.1518456    2.1073674 
H    -3.6003873   -1.1621488    0.4034874 
H    -2.3639908   -2.2756034    0.9946619 
H    -3.2655399   -0.5064759   -2.7011081 
C    -0.1537666    3.3951006   -2.9210042 
O     0.6237513    3.0964121   -2.1137033 
O    -0.9098199    3.7200909   -3.7290040 
