33
Energy = -763.7210268953
N     1.5271193   -1.5950371   -0.5995879 
C     1.5179987   -0.7052196    0.5500977 
C     2.5635725    0.4208883    0.5486720 
C     3.9732774   -0.1452737    0.5825279 
C     2.3748643    1.3697484   -0.6257255 
C     0.1259520   -0.1236046    0.7986153 
O    -0.0656114    0.7343054    1.6406573 
N    -0.8526928   -0.6493997    0.0286987 
C    -2.2365767   -0.3837164    0.2980385 
C    -2.8409418    0.6514736   -0.6707864 
O    -2.8302831    0.1491110   -1.9903250 
C    -2.1462773    1.9915003   -0.5717416 
C    -3.0036064   -1.6816387    0.2044000 
O    -2.5429965   -2.7294401   -0.1562341 
O    -4.2823462   -1.5270886    0.5672749 
H     2.2391269   -2.3038948   -0.5090918 
H     1.7102796   -1.0878820   -1.4552226 
H     1.7059149   -1.3236077    1.4350602 
H     2.3845531    0.9856106    1.4667152 
H     4.1933650   -0.7221368   -0.3202332 
H     4.1198677   -0.8007690    1.4444744 
H     4.7119815    0.6559263    0.6433620 
H     1.3751817    1.8082739   -0.6284770 
H     2.5365345    0.8699666   -1.5860929 
H     3.0938095    2.1890128   -0.5739407 
H    -0.6070342   -1.4921660   -0.4763266 
H    -2.3241116    0.0100926    1.3154312 
H    -3.8957000    0.7598103   -0.4119975 
H    -1.9130586    0.0745345   -2.2657635 
H    -2.6211032    2.6988318   -1.2518402 
H    -1.0931596    1.8991848   -0.8469329 
H    -2.1844154    2.3846168    0.4443893 
H    -4.7134837   -2.3819134    0.4468047 
