36
Energy = -1064.259438065
N     2.5424977   -0.9989353   -1.9000574 
C     2.0805306   -0.6247426   -0.5835449 
C     2.8456788    0.6746306   -0.3246624 
C     4.1545447    0.4927361   -1.1218385 
C     3.9810767   -0.8493933   -1.8444404 
C     0.5669497   -0.6057864   -0.5417551 
O    -0.0860766   -1.4542299   -1.1236725 
N     0.0064565    0.3568971    0.2169355 
C    -1.4186308    0.4854955    0.3756076 
C    -1.9569217   -0.6002253    1.3250578 
C    -3.4489965   -0.6028379    1.5975127 
C    -4.3033297   -0.8145012    0.3817596 
O    -3.9114606   -1.0407103   -0.7304839 
O    -5.6098438   -0.7360803    0.6828801 
C    -1.6772628    1.8816009    0.8820220 
O    -0.8392024    2.6071309    1.3491044 
O    -2.9611619    2.2377210    0.7653201 
H     2.2139304   -1.9122430   -2.1783956 
H     2.3791545   -1.3627574    0.1878437 
H     3.0229881    0.8433437    0.7381744 
H     2.2825054    1.5245633   -0.7136562 
H     5.0342571    0.4898841   -0.4785601 
H     4.2761544    1.3030291   -1.8400283 
H     4.4689399   -1.6491963   -1.2627078 
H     4.4149882   -0.8519172   -2.8453752 
H     0.5707843    1.0730780    0.6443054 
H    -1.9099688    0.3707638   -0.5922779 
H    -1.6680252   -1.5468085    0.8663000 
H    -1.4227905   -0.5177089    2.2747941 
H    -3.7901191    0.3115901    2.0852792 
H    -3.6895027   -1.4122458    2.2932131 
H    -6.0929046   -0.8948557   -0.1374590 
H    -3.0391484    3.1334479    1.1176363 
C    -2.1277816   -1.2291098   -3.0714642 
O    -2.0289866   -0.0749884   -3.0433499 
O    -2.2447558   -2.3753251   -3.1485604 
