46
Energy = -1183.064326266
N    -0.9556837   -0.2945873    2.0532756 
C    -0.9752423   -0.9431159    0.7652561 
C    -1.6471884   -0.0339625   -0.2743198 
C    -3.1261776    0.1053271   -0.0766548 
C    -3.9995346   -0.7471128   -0.7424058 
C    -5.3701067   -0.6636584   -0.5545010 
C    -5.8933713    0.2874492    0.3118418 
O    -7.2267677    0.4194352    0.5340609 
C    -5.0364288    1.1506688    0.9824004 
C    -3.6707234    1.0527688    0.7851849 
C     0.3568764   -1.4281462    0.1892410 
O     0.3907430   -2.1592168   -0.7885133 
N     1.4685578   -0.9894527    0.8036980 
C     2.7867066   -1.3836450    0.3876335 
C     3.2077512   -0.8145700   -0.9768273 
C     2.9570136    0.6724404   -1.1976698 
C     3.7485824    1.5630185   -0.2506440 
C     3.2662186    1.0182948   -2.6475886 
C     3.7265237   -1.0517706    1.5216577 
O     3.3926925   -0.5552352    2.5666086 
O     4.9859101   -1.4035720    1.2540667 
H    -0.4765931    0.5946111    2.0455556 
H    -0.5962255   -0.8738945    2.7967933 
H    -1.5828666   -1.8491088    0.8486555 
H    -1.4517551   -0.4549468   -1.2602184 
H    -1.1599081    0.9469846   -0.2361406 
H    -3.6011328   -1.4893858   -1.4258309 
H    -6.0345140   -1.3360791   -1.0883118 
H    -7.6983045   -0.2315338    0.0115250 
H    -5.4547880    1.8904571    1.6529477 
H    -3.0120476    1.7266140    1.3196932 
H     1.3995050   -0.4865033    1.6736513 
H     2.8168971   -2.4758563    0.2861196 
H     2.6516155   -1.3768496   -1.7272701 
H     4.2673301   -1.0403651   -1.1230432 
H     1.8903515    0.8581421   -1.0295357 
H     3.4621202    1.4226989    0.7929758 
H     4.8207645    1.3639281   -0.3367339 
H     3.5892538    2.6165485   -0.4896196 
H     4.3251693    0.8541614   -2.8672594 
H     3.0435137    2.0665810   -2.8569467 
H     2.6832980    0.4018935   -3.3344020 
H     5.5134313   -1.1749170    2.0292426 
C    -0.2377570   -2.0610681   -3.5264098 
O    -1.3648075   -2.2367847   -3.3339940 
O     0.8787789   -1.8760799   -3.7666459 
