47
Energy = -1163.191938243
N     2.7086623   -2.0764582    0.4387148 
C     1.9798307   -1.0215104    1.1156890 
C     2.7776143    0.2837920    1.0728161 
C     2.9492701    0.8269747   -0.3453876 
C     4.3243093    1.4159388   -0.6292615 
C     5.4651934    0.4004797   -0.5263423 
N     5.3177465   -0.8192705   -1.2960341 
C     0.6012178   -0.9081743    0.4750856 
O     0.1457469   -1.7908663   -0.2356447 
N    -0.1041497    0.1980387    0.7676177 
C    -1.4150788    0.4111021    0.2193125 
C    -2.4888907   -0.3646988    1.0146754 
C    -3.8335510   -0.4136441    0.3561761 
C    -4.9133496    0.2929574    0.8718900 
C    -6.1521194    0.2501435    0.2493796 
C    -6.3237858   -0.5017698   -0.9024873 
C    -5.2523819   -1.2146096   -1.4229562 
C    -4.0174595   -1.1730195   -0.7966058 
C    -1.6775900    1.8964206    0.2470415 
O    -1.0902817    2.6692099    0.9597604 
O    -2.6480907    2.2573988   -0.5885785 
H     2.0519970   -2.7243014    0.0182693 
H     3.2975174   -2.5846529    1.0817471 
H     1.7771148   -1.2665418    2.1702646 
H     2.3313503    1.0356034    1.7318338 
H     3.7511124    0.0608030    1.5155050 
H     2.1822069    1.5776283   -0.5507774 
H     2.7745177    0.0091571   -1.0500854 
H     4.3199881    1.8388855   -1.6398773 
H     4.5278894    2.2509234    0.0517626 
H     5.6103652    0.1110419    0.5189443 
H     6.3973838    0.8911810   -0.8217711 
H     5.1792661   -0.6109045   -2.2765738 
H     4.5046026   -1.3382468   -0.9783408 
H     0.2927145    0.9528367    1.3027732 
H    -1.4340234    0.0597494   -0.8141582 
H    -2.5621490    0.0657534    2.0161361 
H    -2.0914405   -1.3761722    1.1179602 
H    -4.7829241    0.8817406    1.7736874 
H    -6.9848042    0.8038397    0.6663466 
H    -7.2901930   -0.5372438   -1.3904470 
H    -5.3801510   -1.8110596   -2.3181986 
H    -3.1869127   -1.7414924   -1.2017889 
H    -2.7912153    3.2055474   -0.4741057 
C    -0.3996986   -3.9488174   -1.8784538 
O     0.5709476   -4.4756266   -1.5344195 
O    -1.3796724   -3.4578455   -2.2482738 
