33
Energy = -1235.802644998
N    -0.0213870   -0.2781747    1.9791945 
C     0.7038580   -0.0076682    0.7493296 
C     1.5906175   -1.1465969    0.2619440 
C     2.7723135   -1.4341883    1.1727359 
S     3.8471789   -0.0196290    1.4921725 
C     4.3380895    0.4076628   -0.1840766 
C    -0.2160364    0.4438246   -0.3784753 
O     0.2130431    0.6512374   -1.5054270 
N    -1.4992442    0.6172374   -0.0371334 
C    -2.4630198    1.1245224   -0.9722693 
C    -2.9391204    0.0597649   -1.9602720 
C    -3.6240519    1.6873318   -0.1916263 
O    -3.7980590    1.5436443    0.9883011 
O    -4.4705314    2.3616023   -0.9791931 
H     0.5134443   -0.0033971    2.7894352 
H    -0.2409201   -1.2610834    2.0721022 
H     1.3551186    0.8539350    0.9343238 
H     0.9861099   -2.0580841    0.1724565 
H     1.9389988   -0.9086530   -0.7429174 
H     3.3713556   -2.2497304    0.7611737 
H     2.4392323   -1.7510751    2.1643395 
H     3.4972650    0.7631904   -0.7791390 
H     4.8043470   -0.4436838   -0.6813339 
H     5.0718489    1.2082975   -0.0982531 
H    -1.7454990    0.5143747    0.9387021 
H    -2.0088600    1.9397859   -1.5443345 
H    -3.6521409    0.4822058   -2.6672491 
H    -2.0772247   -0.3141034   -2.5107290 
H    -3.4115605   -0.7680996   -1.4289531 
H    -5.1940073    2.6665831   -0.4179933 
C     1.3448674   -0.4403293   -3.7861922 
O     2.4035360   -0.4570359   -3.3180050 
O     0.3075827   -0.4502665   -4.2965948 
