33
Energy = -1116.232528278
N     2.1126001   -1.9803939    0.6728677 
C     2.0205783   -0.5913913    1.0480228 
C     2.9811572    0.2558678    0.2242521 
C     2.6241087    0.2842721   -1.2454001 
O     1.6439780   -0.2770611   -1.7031291 
N     3.4752841    0.9827916   -2.0270417 
C     0.6463617    0.0912970    1.0353635 
O     0.5414002    1.2727345    1.3249239 
N    -0.4032878   -0.6856559    0.7240681 
C    -1.7417666   -0.1815489    0.6021832 
C    -1.8716456    0.9203968   -0.4562025 
C    -3.0598824    1.8039606   -0.2207005 
O    -3.5736078    2.0183298    0.8426183 
O    -3.4727067    2.3895077   -1.3567393 
C    -2.6232453   -1.3572922    0.2510227 
O    -2.2178528   -2.4701300    0.0345627 
O    -3.9092407   -1.0211965    0.1745897 
H     1.7965832   -2.1428406   -0.2732924 
H     1.6289467   -2.5951950    1.3096114 
H     2.3479630   -0.5040681    2.0891017 
H     2.9663708    1.2808713    0.6010731 
H     3.9942623   -0.1362519    0.3388888 
H     3.2668786    1.0730081   -3.0052705 
H     4.2493083    1.4908429   -1.6433496 
H    -0.2496973   -1.6385694    0.4364592 
H    -2.0884719    0.2407985    1.5510279 
H    -1.8765632    0.5222245   -1.4698169 
H    -0.9919342    1.5617237   -0.3559115 
H    -4.1982688    2.9776280   -1.1129969 
H    -4.3963771   -1.8121047   -0.0879514 
C    -0.3144096   -2.2572703   -2.4656103 
O     0.3982303   -3.0509058   -2.0176000 
O    -1.0431166   -1.4858078   -2.9242633 
