40
Energy = -1443.680876898
N     1.9962200    0.7996369   -1.9877721 
C     1.9083695   -0.5832079   -1.5448943 
C     2.8908387   -0.9782226   -0.4432664 
C     4.3329247   -0.9396106   -0.9099841 
S     5.5485874   -1.3430122    0.3590080 
C     5.4572938    0.1352553    1.3757566 
C     0.4860019   -0.9409555   -1.1057463 
O     0.2277331   -2.0114521   -0.5800405 
N    -0.4314180    0.0038036   -1.3598744 
C    -1.8107356   -0.1623840   -1.0060987 
C    -2.0108062    0.0712367    0.5017664 
C    -3.4287752   -0.0760357    1.0168613 
C    -4.2575553    1.1823974    0.8507852 
O    -3.7731814    2.2611128    0.5697226 
N    -5.5827370    1.0287167    1.0738202 
C    -2.6225423    0.7752252   -1.8656560 
O    -2.1840935    1.7273111   -2.4509144 
O    -3.9115812    0.4165218   -1.9191245 
H     2.1897366    1.4209203   -1.2125356 
H     2.7241545    0.9284361   -2.6737715 
H     2.0940134   -1.2193410   -2.4180138 
H     2.7478254   -0.2973557    0.4031610 
H     2.6390269   -1.9774245   -0.0879039 
H     4.5931664    0.0354181   -1.3326137 
H     4.4921532   -1.6815388   -1.6972298 
H     6.2200814    0.0346405    2.1472656 
H     5.6740751    1.0279685    0.7867194 
H     4.4872988    0.2389922    1.8617805 
H    -0.1314222    0.8460898   -1.8317389 
H    -2.1169887   -1.1878301   -1.2350805 
H    -1.3676451   -0.6628840    0.9877304 
H    -1.6392016    1.0660802    0.7483036 
H    -3.9437761   -0.9203433    0.5501816 
H    -3.4000258   -0.2898069    2.0900986 
H    -5.9843209    0.1379790    1.2959746 
H    -6.1763209    1.8372424    1.0270794 
H    -4.3713980    1.1080005   -2.4121491 
C    -1.6551413    3.9778436   -0.5901761 
O    -0.7929799    3.3680927   -0.1129003 
O    -2.4874396    4.6213350   -1.0657947 
