27
Energy = -834.3422470165
N     2.1633679   -1.3993628   -0.0485002 
C     2.3186490   -0.0329445    0.4314532 
C     3.1161944    0.7894896   -0.5680122 
C     0.9659747    0.6422548    0.6372120 
O     0.8651975    1.6628050    1.2938574 
N    -0.0592832    0.0378897    0.0070974 
C    -1.3989793    0.5352072    0.0589617 
C    -1.9650536    0.7819058   -1.3438908 
O    -3.1770838    1.4737553   -1.3295387 
C    -2.3337810   -0.3403536    0.8673739 
O    -3.5329262   -0.3410361    0.7341763 
O    -1.7142018   -1.1136084    1.7601644 
H     2.0058587   -2.0425907    0.7153689 
H     2.9925230   -1.7051473   -0.5378804 
H     2.8162943    0.0272551    1.4061705 
H     4.1360889    0.4075752   -0.6500245 
H     3.1614242    1.8287768   -0.2463849 
H     2.6491709    0.7465773   -1.5544010 
H     0.1744178   -0.8233596   -0.4677713 
H    -1.3611471    1.4929301    0.5890171 
H    -1.2417531    1.3934465   -1.8852209 
H    -2.0489358   -0.1796131   -1.8734896 
H    -3.7721925    0.9753690   -0.7567755 
H    -2.4065138   -1.5778406    2.2480659 
C    -0.6149172    2.3749165    3.6066140 
O     0.3346083    2.8119569    4.0976667 
O    -1.5918840    1.9446997    3.1560675 
