47
Energy = -1329.410458163
N    -2.8827355   -1.4503912   -0.7198048 
C    -1.7661313   -0.7838871   -1.3529645 
C    -1.5422155    0.5805260   -0.7064238 
C    -2.7225097    1.5259121   -0.8118133 
C    -2.5488552    2.7230016    0.0958468 
O    -2.0680663    2.6442410    1.2154308 
N    -2.9940199    3.8975949   -0.3971732 
C    -0.4032553   -1.4763646   -1.3161700 
O     0.4670691   -1.1836859   -2.1155527 
N    -0.2153962   -2.3597489   -0.3118745 
C     1.0878958   -2.8145311    0.0597049 
C     1.5566061   -2.2104661    1.4130872 
C     1.3547024   -0.7401234    1.4718183 
C     2.0438592    0.2693908    0.7203452 
C     3.0988492    0.2502028   -0.1949806 
C     3.4998065    1.4361491   -0.7758828 
C     2.8635062    2.6465229   -0.4657377 
C     1.8223693    2.6978579    0.4399461 
C     1.4279044    1.5034010    1.0324623 
N     0.4446063    1.2608472    1.9554678 
C     0.3881898   -0.0885007    2.1869952 
C     1.1071559   -4.3179488    0.1729708 
O     0.1378779   -5.0104070    0.3266064 
O     2.3567935   -4.8000624    0.1448199 
H    -3.0167993   -2.3982856   -1.0400171 
H    -2.8238765   -1.4381411    0.2892586 
H    -1.9947536   -0.6530642   -2.4146616 
H    -1.3209259    0.4198469    0.3500067 
H    -0.6558427    1.0348876   -1.1478225 
H    -2.8768966    1.8443512   -1.8459044 
H    -3.6375738    1.0144465   -0.4970717 
H    -3.3498248    3.9783392   -1.3302454 
H    -2.9205983    4.7202554    0.1746293 
H    -0.9913080   -2.5844468    0.2856578 
H     1.7660624   -2.4982134   -0.7337204 
H     0.9919313   -2.6863996    2.2205348 
H     2.6049454   -2.4844158    1.5539220 
H     3.5893172   -0.6789225   -0.4595105 
H     4.3116961    1.4323530   -1.4923563 
H     3.1949324    3.5583115   -0.9474205 
H     1.3286098    3.6315232    0.6798527 
H    -0.3371452    1.8831383    2.1054868 
H    -0.3490524   -0.4967422    2.8617742 
H     2.2945117   -5.7544292    0.2756057 
C     1.5313661    1.0090214   -3.4913539 
O     0.6547779    1.6973252   -3.1752678 
O     2.4199961    0.3631048   -3.8484246 
