39
Energy = -1194.796546080
N     2.1919393   -1.1982793    0.0614285 
C     1.9209916    0.2155544    0.2793920 
C     2.7366056    1.1754754   -0.5781800 
C     4.2041720    1.1693604   -0.2065671 
C     5.0525431    1.9780295   -1.1440520 
O     4.7131365    2.3975079   -2.2160208 
O     6.2878421    2.1734266   -0.6484433 
C     0.4343494    0.5247208    0.1417724 
O     0.0047368    1.6669328    0.1578405 
N    -0.3728217   -0.5467126    0.0564255 
C    -1.7934810   -0.3722427    0.1451977 
C    -2.4880722   -1.7314594    0.1211795 
C    -4.0104177   -1.6480971    0.1010342 
C    -4.5034360   -1.0491335   -1.2024960 
O    -4.4993453   -1.6878138   -2.2343590 
N    -4.9326147    0.2342095   -1.1312780 
C    -2.1276128    0.3737061    1.4304918 
O    -1.5756335    0.2040568    2.4808485 
O    -3.1524562    1.2281724    1.2759302 
H     2.4142550   -1.3817717   -0.9085666 
H     2.9649865   -1.5231190    0.6219674 
H     2.1230616    0.4307157    1.3352626 
H     2.3230626    2.1781159   -0.4684956 
H     2.6208367    0.9091330   -1.6329965 
H     4.3617026    1.5409213    0.8094491 
H     4.6158427    0.1534210   -0.2182675 
H     6.7746155    2.6784029   -1.3114302 
H     0.0640564   -1.4472685    0.1876677 
H    -2.1351305    0.2425225   -0.6904541 
H    -2.1620642   -2.3034538    0.9940196 
H    -2.1545643   -2.2644797   -0.7722598 
H    -4.4175203   -2.6578222    0.1524558 
H    -4.3841121   -1.0926889    0.9633084 
H    -4.7301678    0.7963453   -0.3229649 
H    -5.1562977    0.6969440   -1.9953885 
H    -3.2484962    1.7019102    2.1127590 
C    -0.0632223    2.7791802    2.8272649 
O     0.9850387    2.3239458    3.0036605 
O    -1.1049066    3.2634286    2.6881588 
