38
Energy = -1065.477133948
N    -0.4960363    1.5688373   -1.4112065 
C    -0.6503122    0.9844115   -0.0842820 
C    -1.9003371    0.0963816    0.0196318 
C    -1.8964671   -1.0302396   -1.0051520 
C    -3.1724868    0.9408660   -0.0433579 
C    -4.4257377    0.1893746    0.3739944 
C     0.5737341    0.1675263    0.3078921 
O     0.7828134   -0.1579535    1.4644942 
N     1.3860407   -0.1750396   -0.7068596 
C     2.5977530   -0.9123076   -0.4907305 
C     3.6584870   -0.0938517    0.2245662 
C     4.1606559    1.0320106   -0.6230010 
O     3.8960985    1.2159537   -1.7837240 
O     4.9794646    1.8416283    0.0609868 
C     2.3758844   -2.2284704    0.2398501 
O     3.1781135   -2.7362527    0.9723022 
O     1.2221381   -2.8127194   -0.1022327 
H     0.0208385    2.4366205   -1.3644545 
H    -1.3973828    1.7861505   -1.8127049 
H    -0.7378283    1.7442083    0.7024279 
H    -1.8465394   -0.3452498    1.0201152 
H    -2.7576486   -1.6837915   -0.8637404 
H    -1.9377137   -0.6411508   -2.0251496 
H    -0.9997467   -1.6445720   -0.9177773 
H    -3.3160907    1.3310597   -1.0582892 
H    -3.0458790    1.8130714    0.6061629 
H    -4.6470547   -0.6395508   -0.2999021 
H    -4.3153075   -0.2203207    1.3808570 
H    -5.2952811    0.8487689    0.3768562 
H     1.1122081    0.1084900   -1.6333995 
H     2.9748607   -1.1866667   -1.4804609 
H     4.5041823   -0.7276615    0.4993749 
H     3.2605852    0.2999921    1.1611622 
H     5.2723957    2.5267818   -0.5526141 
H     1.1779136   -3.6394436    0.3930752 
C     1.7300050    1.6785084   -3.6965858 
O     1.7065032    0.5409982   -3.9076141 
O     1.7375351    2.8190993   -3.5061841 
