39
Energy = -991.4745075289
N     2.7440972   -1.7609663   -0.6011646 
C     2.8069877   -0.5496488    0.1925244 
C     3.1374629    0.6228348   -0.7503093 
O     4.2848726    0.2974876   -1.5204137 
C     3.3151263    1.9441168   -0.0393256 
C     1.4843602   -0.2817827    0.9043828 
O     1.4217975    0.4430602    1.8845931 
N     0.4272913   -0.8767006    0.3281854 
C    -0.9170169   -0.7472947    0.8210643 
C    -1.8167745    0.0384380   -0.1548876 
C    -1.2529142    1.4352984   -0.3617427 
C    -3.2631570    0.0681468    0.3342920 
C    -4.2115521    0.8055745   -0.5962385 
C    -1.4654962   -2.1427123    1.0329362 
O    -1.3396855   -3.0410702    0.2446612 
O    -2.1190766   -2.2759190    2.1930411 
H     3.4809948   -1.7393552   -1.2945779 
H     2.8690708   -2.5859598   -0.0315534 
H     3.5694615   -0.5677250    0.9838844 
H     2.3260802    0.6912536   -1.4819303 
H     5.0622979    0.4901466   -0.9913851 
H     2.4324271    2.2129815    0.5381312 
H     3.5237921    2.7282025   -0.7677925 
H     4.1508788    1.8886858    0.6648895 
H     0.6322941   -1.5108351   -0.4338856 
H    -0.8686525   -0.2221158    1.7755757 
H    -1.7885294   -0.5017250   -1.1097242 
H    -1.3384341    2.0228778    0.5550853 
H    -1.7874389    1.9589219   -1.1540261 
H    -0.2007656    1.3992776   -0.6444567 
H    -3.6247536   -0.9565717    0.4575949 
H    -3.2903357    0.5216839    1.3310597 
H    -5.2428547    0.7079270   -0.2535900 
H    -3.9856948    1.8713692   -0.6493799 
H    -4.1597332    0.4026033   -1.6110492 
H    -2.4502799   -3.1829025    2.2251766 
C     0.1770414    2.4783201    3.3559103 
O     1.1969117    3.0109253    3.4614809 
O    -0.8678361    1.9854062    3.2722128 
