38
Energy = -1463.289439106
N    -4.2393318   -0.6148389    0.7144531 
C    -3.8131191    0.6678357    0.1906237 
C    -3.8506774    1.7386001    1.2697684 
S    -2.8935123    1.2092987    2.7276157 
C    -2.3996875    0.6118550   -0.3851647 
O    -1.9492152    1.5603968   -1.0070490 
N    -1.7283780   -0.5231655   -0.1546421 
C    -0.3442211   -0.6561861   -0.5142089 
C     0.5649200    0.0207467    0.5360417 
C     2.0137274    0.0467325    0.1618295 
C     2.9275680   -0.8282142    0.7402111 
C     4.2622523   -0.8272164    0.3737920 
C     4.7072666    0.0630645   -0.5940954 
O     6.0232241    0.0319723   -0.9257051 
C     3.8093596    0.9473981   -1.1806413 
C     2.4777118    0.9351783   -0.8025982 
C    -0.0226534   -2.1266600   -0.6107264 
O    -0.5335181   -2.9730345    0.0742007 
O     0.9212819   -2.3831790   -1.5174516 
H    -4.5510921   -1.2350548   -0.0193615 
H    -4.9904330   -0.5146828    1.3822479 
H    -4.4383948    1.0401282   -0.6320434 
H    -4.8847654    1.9354240    1.5579652 
H    -3.4151124    2.6476892    0.8604711 
H    -2.7434473    2.4389375    3.2393324 
H    -2.1482222   -1.2002294    0.4679288 
H    -0.1824278   -0.1760544   -1.4795117 
H     0.4178771   -0.4889717    1.4907057 
H     0.1785789    1.0354218    0.6472420 
H     2.5886656   -1.5264653    1.4982256 
H     4.9711434   -1.5061561    0.8304859 
H     6.1948199    0.6952563   -1.5964261 
H     4.1527514    1.6498858   -1.9335618 
H     1.7884598    1.6318567   -1.2675926 
H     1.1236303   -3.3258301   -1.4614254 
C    -0.9149637    3.7277065   -2.4193561 
O    -1.8942430    4.3237845   -2.2713962 
O     0.0849605    3.1704297   -2.5920348 
