39
Energy = -1062.602752652
N    -1.7206965    0.7394570    1.1656976 
C    -2.1694343   -0.2998547    0.2637558 
C    -3.3648579    0.1621027   -0.5844769 
C    -4.5788237    0.4308519    0.2888215 
C    -3.0171868    1.3746479   -1.4374268 
C    -1.1201854   -0.9238446   -0.6540873 
O    -1.3796721   -1.8921150   -1.3519410 
N     0.0987113   -0.3450654   -0.6591326 
C     1.1835743   -0.9676733   -1.3513355 
C     2.3679135    0.0000854   -1.4746774 
C     2.8998532    0.4398056   -0.1559746 
C     4.1262448    0.2015549    0.3969907 
N     4.0924561    0.7889769    1.6340325 
C     2.8714858    1.3464051    1.7878620 
N     2.1281898    1.1578630    0.7283216 
C     1.6174478   -2.2457926   -0.6494676 
O     1.3379463   -2.5564042    0.4740912 
O     2.3910447   -2.9943599   -1.4480356 
H    -1.0366661    0.3992885    1.8257699 
H    -1.3296526    1.5347470    0.6806581 
H    -2.5146265   -1.1389667    0.8755336 
H    -3.5857460   -0.6740225   -1.2529787 
H    -4.8716310   -0.4646950    0.8412714 
H    -4.3650227    1.2171399    1.0147824 
H    -5.4301371    0.7450543   -0.3189492 
H    -2.1333431    1.1977619   -2.0549221 
H    -3.8444854    1.6200177   -2.1057696 
H    -2.8337156    2.2573470   -0.8185397 
H     0.3407752    0.3366800    0.0477855 
H     0.8505524   -1.2589982   -2.3495523 
H     3.1578514   -0.4820728   -2.0502064 
H     2.0235746    0.8668810   -2.0438236 
H     4.9920005   -0.3215795    0.0290154 
H     4.8388515    0.8012041    2.3050495 
H     2.5786512    1.8743171    2.6816309 
H     2.5996045   -3.8005055   -0.9601548 
C    -1.1001874   -4.2791044    0.2511605 
O    -1.6813762   -3.7589559    1.1053739 
O    -0.5263220   -4.8434123   -0.5798397 
