42
Energy = -1353.646439657
C    -3.9598106   -0.4959831    0.1086025 
C    -3.2812932    0.8506866    0.3195922 
C    -2.6962667    0.9452756    1.7229594 
C    -2.2871463    1.1734138   -0.7997028 
C    -1.1497633    0.1649626   -1.0106702 
C    -0.4953074    0.4050753   -2.3539185 
O    -1.3031128    0.1335949   -3.3747711 
N    -0.1306356    0.2067889    0.0009601 
C     0.1700888   -0.8653004    0.7724691 
O    -0.5472790   -1.8446100    0.8675061 
C     1.5056837   -0.7541086    1.4926024 
C     2.6136017   -1.1708254    0.5201487 
C     3.9529027   -0.5649245    0.8984759 
S     4.0383728    1.2222115    0.6545366 
C     4.0483262    1.3088624   -1.1425910 
N     1.5850343   -1.5402719    2.7027366 
O     0.6320546    0.8152550   -2.4935452 
H     1.1470972   -2.4388006    2.5284540 
H     1.0450858   -1.1053591    3.4392449 
H     1.6708031    0.2986108    1.7449650 
H     2.6845980   -2.2626572    0.5336249 
H     2.3549497   -0.8852517   -0.5025836 
H     4.7694787   -1.0283376    0.3405750 
H     4.1429844   -0.7285165    1.9612065 
H     4.8824213    0.7361348   -1.5503281 
H     4.1865260    2.3572934   -1.4048964 
H     3.1113157    0.9679012   -1.5815373 
H     0.5850865    0.9076020   -0.1157783 
H    -1.5581382   -0.8484064   -1.0155406 
H    -1.8418391    2.1584261   -0.6243934 
H    -2.8451216    1.2393608   -1.7368612 
H    -4.0511522    1.6270981    0.2362083 
H    -4.3770034   -0.5843262   -0.8975430 
H    -3.2581355   -1.3187824    0.2652655 
H    -4.7761934   -0.6280294    0.8213298 
H    -3.4974354    0.9131633    2.4645381 
H    -2.0272559    0.1102269    1.9313003 
H    -2.1421749    1.8752253    1.8675831 
H    -0.8218647    0.3307203   -4.1931483 
O     2.7482030    1.4208314   -4.6923032 
C     1.7013464    1.1294071   -5.0741181 
O     0.6603915    0.8388899   -5.5010309 
