42
Energy = -1353.636223322
N    -1.8587994    0.8142684   -1.9620585 
C    -1.4793644    0.8909664   -0.5660436 
C    -2.3347244   -0.0883752    0.2560251 
C    -1.9738185   -0.0783225    1.7350106 
C    -3.8317345    0.1606803    0.0405566 
C    -4.3071419    1.5608462    0.3909217 
C     0.0002344    0.6709593   -0.2717900 
O     0.5927824    1.3031285    0.5907701 
N     0.6155251   -0.2807455   -1.0003303 
C     2.0057995   -0.5905331   -0.8143438 
C     2.2086120   -1.6028029    0.3313932 
C     3.6196122   -1.6790663    0.9098418 
S     3.9271272   -0.6686664    2.3716052 
C     3.8337952    1.0028386    1.7144577 
C     2.5180356   -1.1382367   -2.1238861 
O     1.8137676   -1.5438281   -3.0107806 
O     3.8521847   -1.1513348   -2.1912125 
H    -1.9399155   -0.1366934   -2.2951595 
H    -1.2318002    1.3230769   -2.5678045 
H    -1.6755761    1.9038382   -0.2053585 
H    -2.1167101   -1.0936710   -0.1320550 
H    -0.9382303   -0.3706250    1.9090346 
H    -2.6155448   -0.7756115    2.2767149 
H    -2.1050592    0.9129845    2.1702479 
H    -4.0865020   -0.0462748   -1.0004858 
H    -4.3734791   -0.5731672    0.6455865 
H    -4.0483555    1.8403925    1.4135646 
H    -3.8759017    2.3047667   -0.2809683 
H    -5.3922353    1.6288766    0.2967877 
H     0.1502094   -0.7138441   -1.7811094 
H     2.5429579    0.3295814   -0.5776205 
H     1.5158725   -1.3140144    1.1228089 
H     1.8910877   -2.5873748   -0.0265967 
H     3.8135924   -2.6937738    1.2619857 
H     4.3761960   -1.4630664    0.1540517 
H     4.1317188    1.6647166    2.5272877 
H     2.8207672    1.2652996    1.4120463 
H     4.5349243    1.1343090    0.8880665 
H     4.0904496   -1.5506622   -3.0377800 
C     0.0623573    3.4165406    2.3081721 
O    -1.0523609    3.4835227    2.0012663 
O     1.1666312    3.3931465    2.6485120 
