34
Energy = -988.0864469209
N     2.6834788   -1.1080603   -1.5339001 
C     1.9478600   -0.8876686   -0.3176374 
C     2.7623109   -0.2053205    0.8090396 
O     3.9241314   -0.9728499    1.0713846 
C     3.2271244    1.1883249    0.4634474 
C     0.7110383   -0.0628564   -0.6224146 
O     0.6644830    0.7043593   -1.5708916 
N    -0.3040298   -0.2009341    0.2500320 
C    -1.4851373    0.6133758    0.1821352 
C    -2.4923601    0.0567259   -0.8659584 
O    -3.4718855    1.0036122   -1.1930002 
C    -3.1913694   -1.1971435   -0.3981780 
C    -2.0748024    0.6699510    1.5681405 
O    -1.7815276   -0.0950072    2.4518691 
O    -2.9705453    1.6427841    1.7072122 
H     2.5549032   -0.3132142   -2.1481619 
H     3.6677139   -1.2177341   -1.3291105 
H     1.6130696   -1.8541454    0.0881952 
H     2.1316316   -0.1631971    1.7084874 
H     3.6597116   -1.8361231    1.3952729 
H     3.8208720    1.5903460    1.2838861 
H     2.3807135    1.8506901    0.2821940 
H     3.8480598    1.1727999   -0.4330068 
H    -0.2223627   -0.8052545    1.0524603 
H    -1.2117659    1.6208763   -0.1393231 
H    -1.8695810   -0.1761413   -1.7377802 
H    -3.0516711    1.7179787   -1.6780010 
H    -3.8674936   -0.9746124    0.4297817 
H    -2.4719840   -1.9490399   -0.0721948 
H    -3.7827819   -1.6125317   -1.2134252 
H    -3.3275335    1.5750811    2.6020858 
C    -0.3923005    2.6322959   -3.2858274 
O     0.5843934    2.6104284   -3.8974031 
O    -1.3924278    2.6939873   -2.7008323 
