41
Energy = -1104.759859576
N    -1.9043008    0.0621735   -1.7239585 
C    -1.4838488    0.4729515   -0.4038783 
C    -1.9442110   -0.5286643    0.6684983 
C    -1.4044033   -1.9274157    0.3974254 
C    -3.4627175   -0.5032093    0.8071528 
C    -3.9884068   -1.3526047    1.9514683 
C     0.0010048    0.7740576   -0.1962969 
O     0.3989805    1.2933629    0.8352688 
N     0.8367508    0.4257336   -1.1950118 
C     2.2199103    0.8226869   -1.2070084 
C     3.1737175   -0.2504378   -0.6635057 
C     2.8630424   -0.6438120    0.7669125 
C     3.0566918    0.4866638    1.7390766 
O     3.6481518    1.5061853    1.5034617 
O     2.5183202    0.2090282    2.9307729 
C     2.5850672    1.1624501   -2.6313841 
O     1.8825810    0.9463004   -3.5848841 
O     3.7968600    1.7113276   -2.7258933 
H    -1.7128861    0.7483593   -2.4383502 
H    -1.5314962   -0.8331994   -2.0030690 
H    -1.9768587    1.4238941   -0.1778774 
H    -1.5127351   -0.1710018    1.6071826 
H    -1.5750120   -2.5835474    1.2506724 
H    -1.8962156   -2.3870249   -0.4646160 
H    -0.3278058   -1.9161052    0.2093804 
H    -3.9131086   -0.8189523   -0.1380149 
H    -3.7712491    0.5353738    0.9623446 
H    -5.0672088   -1.2307193    2.0626001 
H    -3.7971961   -2.4156703    1.7937987 
H    -3.5239683   -1.0674100    2.8991876 
H     0.4447459    0.1450686   -2.0800413 
H     2.3355558    1.7168907   -0.5882316 
H     3.1131839   -1.1366303   -1.3012329 
H     4.1898990    0.1398060   -0.7252087 
H     1.8450155   -1.0189294    0.8753871 
H     3.5222112   -1.4587078    1.0814061 
H     2.5907844    1.0081450    3.4678554 
H     3.9629007    1.8776024   -3.6622312 
C    -0.5158515    2.3516219    3.2556841 
O    -1.6203611    2.2481394    2.9287009 
O     0.5702870    2.4767339    3.6341152 
