51
Energy = -1294.664286076
N     2.5227766    0.8189510    0.8595112 
C     2.4633058   -0.2240730   -0.1427323 
C     3.3391404   -1.4142338    0.2558539 
C     4.8381139   -1.2711465    0.0164420 
C     5.5580979   -0.1479410    0.7633811 
C     5.6556154    1.1552858   -0.0211606 
N     6.2746549    2.2667423    0.6800508 
C     1.0746419   -0.7482234   -0.5151112 
O     0.9159921   -1.5296923   -1.4352717 
N     0.0328672   -0.2951861    0.2205160 
C    -1.2770605   -0.8723499    0.0389136 
C    -1.9563904   -0.4321001   -1.2667585 
C    -3.4404973   -0.4107191   -1.1619195 
C    -4.2117498    0.5351419   -0.4075525 
C    -3.8837371    1.6502853    0.3683704 
C    -4.8962957    2.3673479    0.9735508 
C    -6.2381725    1.9950120    0.8168323 
C    -6.5948675    0.9020969    0.0504977 
C    -5.5723300    0.1814066   -0.5554570 
N    -5.6143533   -0.9238188   -1.3625005 
C    -4.3368958   -1.2742666   -1.7212077 
C    -1.1817596   -2.3818663    0.2450371 
O    -0.5260426   -2.8866519    1.1179805 
O    -1.9373019   -3.0958917   -0.5889501 
H     1.9485915    1.6180061    0.6335689 
H     2.2864296    0.4793029    1.7814432 
H     2.8541485    0.1808318   -1.0832557 
H     2.9841808   -2.2811605   -0.3034169 
H     3.1557946   -1.6291442    1.3158312 
H     5.2903224   -2.2295284    0.2860675 
H     5.0119344   -1.1581339   -1.0602035 
H     5.0554532    0.0493883    1.7153862 
H     6.5757532   -0.4703496    1.0101223 
H     4.6564416    1.4733828   -0.3215883 
H     6.2193118    0.9747528   -0.9427578 
H     7.1925616    2.0049901    1.0179225 
H     5.7246651    2.5036527    1.4962049 
H     0.2402091    0.1539526    1.0942286 
H    -1.8904444   -0.5191319    0.8730828 
H    -1.5926220    0.5765473   -1.4789489 
H    -1.6207864   -1.0666725   -2.0843405 
H    -2.8500851    1.9555674    0.4869027 
H    -4.6549838    3.2341429    1.5764268 
H    -7.0108059    2.5772713    1.3032030 
H    -7.6342679    0.6213405   -0.0719993 
H    -6.4469694   -1.3988886   -1.6535333 
H    -4.1541775   -2.1319924   -2.3482580 
H    -1.8040551   -4.0218479   -0.3503458 
C     0.9008073   -2.1508574    3.4656653 
O     0.8533268   -1.0147452    3.2327059 
O     0.9729290   -3.2682774    3.7388169 
