34
Energy = -1382.106985833
N     1.5501813   -0.0635023    1.9957187 
C     0.7378835    0.0202494    0.8031477 
C     1.4297081   -0.7065276   -0.3642856 
C     2.6033571    0.0471914   -0.8699524 
C     3.9355831   -0.1937882   -0.6931321 
N     4.5841095    0.8220374   -1.3468274 
C     3.6402352    1.6279862   -1.8830457 
N     2.4375626    1.1901271   -1.6133462 
C    -0.6473219   -0.5889876    0.9969879 
O    -0.8671085   -1.4384424    1.8436322 
N    -1.6009928   -0.1498277    0.1463478 
C    -2.8989070   -0.7589014    0.1145994 
C    -3.8255529   -0.2342485    1.2110260 
S    -4.2580657    1.5103804    1.0261133 
C    -3.4855337   -0.5659723   -1.2646886 
O    -2.9274702   -0.0247175   -2.1780550 
O    -4.7111998   -1.0925139   -1.3554718 
H     1.3303778   -0.9380472    2.4618978 
H     1.2944186    0.6686837    2.6445000 
H     0.6257245    1.0678733    0.5154349 
H     1.7290153   -1.6992927   -0.0214913 
H     0.7197714   -0.8424318   -1.1843390 
H     4.4606289   -0.9673324   -0.1605085 
H     5.5777873    0.9441885   -1.4149295 
H     3.8772791    2.5070779   -2.4616807 
H    -1.3678090    0.4867847   -0.6015863 
H    -2.7842113   -1.8367243    0.2827667 
H    -3.3546860   -0.4137985    2.1758272 
H    -4.7712392   -0.7744744    1.1847501 
H    -3.0054197    1.9827726    1.1170228 
H    -5.0278342   -0.9173673   -2.2500287 
C     0.2552907    2.7676852   -2.3380976 
O    -0.4394494    2.3056673   -1.5339853 
O     0.8876574    3.2841857   -3.1552290 
