37
Energy = -1135.654188239
N    -3.0025905    0.0706356   -2.0718565 
C    -2.2588688    0.3790308   -0.8648260 
C    -3.0335078   -0.0944266    0.3749729 
C    -4.1688902    0.8389699    0.7394220 
O    -4.2429739    1.3655103    1.8348662 
N    -5.0714389    1.0296507   -0.2448262 
C    -0.8928326   -0.2949173   -0.8222726 
O    -0.6876458   -1.3595465   -1.3720827 
N     0.0418644    0.3637442   -0.0952191 
C     1.2508560   -0.2979351    0.3081212 
C     2.3072507    0.7424798    0.6893033 
C     3.6913947    0.1734809    0.9785709 
C     4.2948808   -0.4285199   -0.2760811 
O     4.7112369    0.2691040   -1.1769169 
N     4.3211940   -1.7826915   -0.3205165 
C     0.9532677   -1.2226307    1.4782292 
O     0.0839314   -1.0465236    2.2846592 
O     1.7955159   -2.2704186    1.5419762 
H    -2.6201477    0.5823335   -2.8568682 
H    -2.8568681   -0.9125966   -2.2817714 
H    -2.1251642    1.4628354   -0.8022502 
H    -2.3793075   -0.1669122    1.2413133 
H    -3.4214217   -1.0962570    0.1716301 
H    -4.8370285    0.7114178   -1.1766516 
H    -5.7890905    1.7181278   -0.1020221 
H    -0.2738306    1.1287764    0.4820335 
H     1.5983787   -0.9054871   -0.5283724 
H     1.9507157    1.3060593    1.5563302 
H     2.3838487    1.4408222   -0.1462445 
H     4.3472094    0.9915066    1.2773074 
H     3.6622909   -0.5480654    1.7960420 
H     4.6100302   -2.2157908   -1.1805481 
H     3.8000009   -2.3267190    0.3435894 
H     1.5382461   -2.7866060    2.3172183 
C    -1.7259902    1.9371805    3.0939952 
O    -1.2673791    2.2464222    2.0718600 
O    -2.1333215    1.6497777    4.1318222 
