33
Energy = -967.0517239860
N     1.6336258   -2.0591628    0.8073647 
C     0.9092741   -0.8357981    0.5356562 
C     1.7010128    0.0572210   -0.4170110 
C     2.9790680    0.5849668    0.2130428 
C     3.5124408    1.7765152   -0.5493238 
O     2.8052725    2.7201561   -0.8498077 
N     4.8285895    1.7396490   -0.8588368 
C    -0.4698842   -1.0832765   -0.0734578 
O    -0.7386649   -2.1097042   -0.6723482 
N    -1.3462201   -0.0655526    0.0665693 
C    -2.6099206   -0.0646442   -0.6179835 
C    -3.7045525   -0.7903762    0.1617547 
C    -2.9940774    1.3684381   -0.8926617 
O    -2.4114669    2.3315806   -0.4689437 
O    -4.0846090    1.4561266   -1.6590967 
H     1.2370113   -2.5237963    1.6140132 
H     1.4764177   -2.6911620    0.0284394 
H     0.7788227   -0.2894958    1.4753881 
H     1.0925317    0.9078125   -0.7235595 
H     1.9306827   -0.5130782   -1.3225217 
H     3.7181977   -0.2096632    0.3180186 
H     2.7547438    0.9508929    1.2201060 
H     5.2321232    2.5210149   -1.3444417 
H     5.4053701    0.9559557   -0.6213466 
H    -1.0493181    0.8032451    0.4856168 
H    -2.4827472   -0.5707528   -1.5799812 
H    -3.3849182   -1.8177203    0.3297700 
H    -3.8701989   -0.3097588    1.1273411 
H    -4.6396704   -0.7973619   -0.3971023 
H    -4.2728524    2.3955897   -1.7772149 
C     0.2625991    3.5186518    0.4502841 
O     0.1921187    4.4406908   -0.2371502 
O     0.3124833    2.6070924    1.1677224 
