46
Energy = -1050.168038330
N     1.6525820   -0.5763257    2.1740338 
C     1.3310081   -0.1201244    0.8375755 
C     2.2057960   -0.8372864   -0.1916191 
C     3.6836460   -0.5270870   -0.0370185 
C     4.5541032   -1.3169511   -0.9989359 
C     6.0455212   -1.0282383   -0.8595717 
N     6.4795454    0.3230380   -1.1725680 
C    -0.1291293   -0.3690470    0.4757540 
O    -0.7043670   -1.3925334    0.8139927 
N    -0.7312289    0.5830864   -0.2605862 
C    -2.0861185    0.4371675   -0.7290761 
C    -3.0916784    0.7761844    0.3840192 
C    -4.5630657    0.4773889    0.1153995 
C    -4.7952000   -0.9828835   -0.2475777 
C    -5.3722228    0.8561172    1.3487135 
C    -2.2452942    1.3457475   -1.9208764 
O    -1.5322138    2.2856844   -2.1575991 
O    -3.2863367    1.0102766   -2.6875950 
H     1.2703803   -1.5077605    2.2992677 
H     1.2046253    0.0088705    2.8669647 
H     1.5386296    0.9544786    0.7832598 
H     2.0332180   -1.9137091   -0.0857604 
H     1.8717263   -0.5683088   -1.1993889 
H     3.9815724   -0.7365099    0.9938211 
H     3.8367722    0.5471468   -0.1935622 
H     4.3871783   -2.3880497   -0.8364820 
H     4.2461492   -1.1134299   -2.0324222 
H     6.6044806   -1.7148375   -1.5017497 
H     6.3601691   -1.2488267    0.1654760 
H     6.1959977    0.5793465   -2.1097978 
H     6.0557413    0.9925580   -0.5447443 
H    -0.2393044    1.4149990   -0.5442305 
H    -2.2377597   -0.5975135   -1.0412841 
H    -2.9654844    1.8316512    0.6458534 
H    -2.7725052    0.1889785    1.2488343 
H    -4.9055649    1.0977905   -0.7188122 
H    -5.8636833   -1.1895138   -0.3359063 
H    -4.3342216   -1.2487107   -1.2000820 
H    -4.3871695   -1.6410351    0.5236661 
H    -6.4394427    0.7005358    1.1794084 
H    -5.0772106    0.2428439    2.2045442 
H    -5.2235059    1.9039695    1.6198211 
H    -3.3359376    1.6615925   -3.3989363 
C    -1.7596754   -2.4542055    3.1684072 
O    -0.7155928   -2.8153323    3.5112036 
O    -2.8220700   -2.1053914    2.8714270 
