26
Energy = -908.3481081057
N     2.9865076    0.3783676    0.7955343 
C     2.8679535   -0.4059203   -0.4184649 
C     1.4216012   -0.6213448   -0.8212878 
O     1.0779720   -1.5388339   -1.5471367 
N     0.5654719    0.2936514   -0.3296988 
C    -0.8321155    0.2438615   -0.6187032 
C    -1.5598995   -0.9057652    0.1141670 
C    -1.3659379   -0.8117145    1.5974129 
O    -0.5159674   -1.3810765    2.2278756 
O    -2.2386192    0.0359066    2.1668108 
C    -1.4435499    1.5872449   -0.2899533 
O    -0.8794575    2.4737734    0.2882636 
O    -2.7054021    1.6687438   -0.7225430 
H     2.8233058   -0.2037128    1.6069248 
H     3.9084248    0.7786114    0.8854926 
H     3.3303336   -1.3962666   -0.3839582 
H     3.3368589    0.1387529   -1.2429790 
H     0.9324433    1.0057657    0.2875799 
H    -0.9758817    0.0576024   -1.6870210 
H    -2.6203731   -0.8690733   -0.1314898 
H    -1.1286944   -1.8403144   -0.2367056 
H    -2.0113893    0.0882802    3.1036719 
H    -3.0453957    2.5289501   -0.4473675 
C     1.1267835   -3.4504762    1.0819335 
O     2.0846909   -2.9124241    1.4475721 
O     0.1884002   -4.0174760    0.7175226 
