39
Energy = -1045.615654665
N    -1.1171196    0.5666629   -2.3679676 
C    -1.0740670    0.9503042   -0.9764330 
C    -1.5816311   -0.1695339   -0.0662231 
C    -3.0801246   -0.4679175   -0.1176377 
C    -3.5170676   -1.1961967   -1.3811505 
C    -3.4739698   -1.2740281    1.1135726 
C     0.2785604    1.4219847   -0.4247106 
O     0.3631646    1.9430835    0.6785580 
N     1.3380306    1.2053278   -1.2228738 
C     2.7043239    1.4846984   -0.8758270 
C     3.1253667    0.9108456    0.4828368 
C     2.7468058   -0.5505063    0.5524464 
O     3.2872102   -1.3777459   -0.1598340 
N     1.7747414   -0.8505556    1.4363762 
C     3.5568750    0.9457254   -2.0083299 
O     3.1151552    0.4210367   -2.9960332 
O     4.8533246    1.1664651   -1.8074472 
H    -0.7713487    1.2808160   -2.9914893 
H    -0.6430845   -0.3076032   -2.5486649 
H    -1.7333090    1.8143637   -0.8369215 
H    -1.3280151    0.1241643    0.9547477 
H    -1.0163982   -1.0847510   -0.2855358 
H    -3.6066290    0.4936154   -0.0747710 
H    -4.5894063   -1.4031547   -1.3527812 
H    -3.2946005   -0.6175611   -2.2754621 
H    -2.9986304   -2.1568400   -1.4636830 
H    -4.5446719   -1.4882363    1.1177667 
H    -2.9474642   -2.2332803    1.1295972 
H    -3.2313314   -0.7433249    2.0369811 
H     1.2049346    0.7151243   -2.0942043 
H     2.8790734    2.5665979   -0.8399934 
H     2.6488486    1.4941813    1.2659738 
H     4.2077312    0.9888011    0.5776113 
H     1.2170676   -0.1131509    1.8326510 
H     1.4096977   -1.7872706    1.4382591 
H     5.3294275    0.7706995   -2.5479349 
C     2.1470654   -2.4121533   -2.5346177 
O     1.1035140   -2.0092710   -2.2253682 
O     3.1610613   -2.8425163   -2.8746612 
