43
Energy = -1210.373502849
N    -3.9499759    1.5323687   -0.5590489 
C    -3.1661988    0.4898525    0.0792912 
C    -3.9929600   -0.7971463    0.2147199 
C    -5.0345217   -0.7278589    1.3142485 
O    -5.0846677   -1.5591536    2.2022002 
N    -5.8854947    0.3134544    1.2127397 
C    -1.8977999    0.1578696   -0.7054127 
O    -1.8105993    0.3804505   -1.9004887 
N    -0.9245702   -0.4283503    0.0165049 
C     0.2476994   -0.9871037   -0.6016845 
C     1.3917062    0.0202247   -0.7481647 
C     1.9122012    0.5404458    0.5782368 
C     3.0423707    1.5435152    0.4159244 
N     4.2006414    0.9832403   -0.2526385 
C     5.1023396    0.2362756    0.4661129 
N     4.8640093   -0.0836454    1.6781962 
N     6.2448819   -0.0646110   -0.2679888 
C     0.6682649   -2.1919950    0.2064783 
O     0.1479575   -2.5515841    1.2290813 
O     1.7085725   -2.8234826   -0.3443086 
H    -3.5158963    2.4332459   -0.4034621 
H    -3.9062814    1.3771482   -1.5623042 
H    -2.8834803    0.8245986    1.0807345 
H    -4.4814357   -0.9954559   -0.7437912 
H    -3.3546414   -1.6483307    0.4422586 
H    -5.6625516    1.0493444    0.5532262 
H    -6.5359334    0.4678054    1.9626168 
H    -1.0939619   -0.6659339    0.9829210 
H    -0.0271191   -1.3337260   -1.6026260 
H     1.0109415    0.8407970   -1.3623477 
H     2.2016028   -0.4529176   -1.3056155 
H     1.1038336    1.0251474    1.1332156 
H     2.2786239   -0.2789893    1.2020071 
H     3.3304834    1.9213261    1.4008297 
H     2.7005818    2.3879024   -0.1877636 
H     4.6131566    1.5553530   -0.9680825 
H     5.5866220   -0.6883672    2.0508286 
H     6.8326996   -0.7617734    0.1561049 
H     6.0834167   -0.2488927   -1.2456629 
H     1.9326258   -3.5586353    0.2397537 
C    -2.3450305   -2.0497433    3.2737041 
O    -2.0930140   -0.9629354    2.9514831 
O    -2.5666616   -3.1284130    3.6121057 
