40
Energy = -1460.662922801
N    -2.4593368   -2.2794487   -1.4970609 
C    -1.8213287   -1.2134969   -2.2563232 
C    -2.6216490    0.0887361   -2.1167983 
C    -2.6560822    0.6628550   -0.7398279 
C    -3.0398909    0.0834664    0.4419629 
N    -2.8311589    1.0332483    1.4035022 
C    -2.3397876    2.1327535    0.7866071 
N    -2.2236358    1.9438096   -0.5031973 
C    -0.3949439   -0.9607416   -1.7845460 
O     0.4189421   -0.4067766   -2.4983396 
N    -0.1386602   -1.3622575   -0.5234033 
C     1.0611255   -0.9712774    0.1622610 
C     1.0416037    0.5327542    0.5007653 
C     2.3352040    1.0951634    1.0590616 
S     3.6644026    1.0029720   -0.1622792 
C     5.0428113    1.4490861    0.8967506 
C     1.1449873   -1.7829230    1.4280753 
O     0.1923161   -2.2195108    2.0227727 
O     2.3977640   -1.9411050    1.8631152 
H    -3.4345485   -2.3543470   -1.7555694 
H    -2.0276142   -3.1723026   -1.6968141 
H    -1.7348656   -1.4297111   -3.3275721 
H    -2.1762939    0.8361872   -2.7730970 
H    -3.6352575   -0.1005754   -2.4879434 
H    -3.4115493   -0.8986184    0.6725947 
H    -2.9627552    0.8996299    2.3902353 
H    -2.0868136    3.0361976    1.3192359 
H    -0.9159215   -1.7053694    0.0214784 
H     1.9301873   -1.1789426   -0.4641612 
H     0.7805585    1.0489666   -0.4243579 
H     0.2269634    0.7170220    1.2067634 
H     2.6532749    0.5540921    1.9531883 
H     2.1791445    2.1403301    1.3359850 
H     5.1646209    0.7284432    1.7070224 
H     5.9403235    1.4373948    0.2792526 
H     4.9172987    2.4507746    1.3106387 
H     2.3468276   -2.4338961    2.6922876 
C    -2.2303753   -2.3540474    3.5532092 
O    -2.3413807   -1.2004061    3.5760528 
O    -2.1514314   -3.5050640    3.5507167 
