41
Energy = -1519.598637334
N     0.3380766   -2.4768042   -1.4961794 
C    -0.0000734   -2.6239139   -0.1000658 
C     1.1628583   -2.1715179    0.7977662 
C     1.3819551   -0.6955654    0.8172909 
C     2.0498290    0.1236721   -0.1570514 
C     2.7111262   -0.1374280   -1.3627529 
C     3.2409817    0.9168649   -2.0776153 
C     3.1331487    2.2360226   -1.6152092 
C     2.5072737    2.5257610   -0.4191100 
C     1.9799105    1.4607570    0.3038526 
N     1.3278706    1.4418787    1.5068982 
C     0.9568707    0.1547491    1.8006345 
C    -1.2704501   -1.9321903    0.3968782 
O    -1.6700523   -2.0743305    1.5407555 
N    -1.9038661   -1.1461065   -0.4970936 
C    -3.0710556   -0.4000065   -0.1420954 
C    -2.7430075    0.8442101    0.6872860 
S    -1.7344147    2.0596940   -0.1913936 
C    -3.8156806   -0.0393694   -1.4052525 
O    -3.4557683   -0.3127820   -2.5182274 
O    -4.9386385    0.6323900   -1.1412498 
H    -0.3670818   -2.8517376   -2.1136700 
H     0.5316791   -1.5195999   -1.7568405 
H    -0.1604735   -3.6882585    0.0971693 
H     0.9471563   -2.5109749    1.8106741 
H     2.0597893   -2.6906681    0.4530608 
H     2.7997967   -1.1526656   -1.7306332 
H     3.7500138    0.7255720   -3.0141458 
H     3.5542702    3.0419688   -2.2033936 
H     2.4328354    3.5444698   -0.0577124 
H     1.0518875    2.2531065    2.0269318 
H     0.4128443   -0.0757358    2.7030772 
H    -1.5625366   -1.0691235   -1.4409885 
H    -3.7227611   -1.0324042    0.4719234 
H    -2.2390349    0.5238299    1.5971590 
H    -3.6625642    1.3592105    0.9624696 
H    -0.6303055    1.3010744   -0.2837002 
H    -5.3425802    0.8557074   -1.9890739 
C    -1.1021100    1.1585508   -3.5829468 
O    -0.4524088    0.2908034   -3.1735987 
O    -1.7293740    2.0281496   -4.0103839 
