35
Energy = -877.0075042426
N     3.8364231    1.3159107   -1.3209023 
C     3.1970125    0.7834521   -0.1357186 
C     3.6518557    1.5639555    1.0908188 
C     1.6717559    0.8534705   -0.2126291 
O     1.0997680    1.7770633   -0.7636041 
N     1.0138785   -0.1515653    0.4076083 
C    -0.4288000   -0.2081671    0.4360438 
C    -0.9577154   -0.9935085   -0.7728731 
C    -2.4689877   -1.0243264   -1.0107036 
C    -3.0882598    0.3668057   -0.9738613 
C    -3.2122135   -1.9887336   -0.0948632 
C    -0.8158213   -0.8357191    1.7538478 
O    -0.3190784   -1.8397336    2.1953458 
O    -1.7678398   -0.1574394    2.3999301 
H     3.6289298    0.7301442   -2.1201266 
H     3.4184268    2.2174770   -1.5258801 
H     3.5019248   -0.2617405   -0.0220516 
H     4.7382311    1.5246930    1.1651112 
H     3.2154650    1.1604721    2.0058965 
H     3.3482454    2.6089981    0.9994261 
H     1.5247467   -0.9413224    0.7686636 
H    -0.7933131    0.8168810    0.3963410 
H    -0.4797869   -0.5205690   -1.6343502 
H    -0.5698085   -2.0150290   -0.7103833 
H    -2.5837443   -1.4068320   -2.0313389 
H    -2.5371505    1.0667269   -1.6057154 
H    -3.1011895    0.7697524    0.0415418 
H    -4.1217896    0.3370827   -1.3240041 
H    -4.2527850   -2.0877649   -0.4108960 
H    -3.2263095   -1.6405732    0.9390062 
H    -2.7610898   -2.9830776   -0.1110677 
H    -1.9556314   -0.6387543    3.2165416 
C     1.9718763   -3.5517320    2.0915592 
O     2.5337140   -2.7462565    1.4737540 
O     1.4437691   -4.3739823    2.7033350 
