40
Energy = -1121.526721111
N     1.5371730    1.6727346   -2.1447518 
C     2.1920408    1.3207739   -0.8924607 
C     1.6545041    2.1717051    0.2473545 
C     1.9824271   -0.1499462   -0.5441583 
O     2.6239974   -0.6862617    0.3449952 
N     1.0462941   -0.7713996   -1.2802459 
C     0.6873238   -2.1363766   -1.0702780 
C    -0.7101814   -2.3006371   -0.4265624 
C    -0.8534510   -1.4940233    0.8145405 
C    -1.3354112   -0.1467615    0.9053715 
C    -1.8593859    0.7594481   -0.0202793 
C    -2.2409386    2.0131502    0.4122996 
C    -2.1044525    2.3882642    1.7564722 
C    -1.5912962    1.5146583    2.6951217 
C    -1.2157115    0.2499540    2.2568083 
N    -0.6883744   -0.8117065    2.9426304 
C    -0.4792699   -1.8550188    2.0770140 
C     0.7214410   -2.8889160   -2.3792099 
O     0.7212106   -2.3872264   -3.4696937 
O     0.7012080   -4.2160957   -2.1847532 
H     1.2715075    2.6466171   -2.1514535 
H     2.1358966    1.5080992   -2.9417463 
H     3.2807956    1.4456081   -0.9337836 
H     2.0870354    1.8512681    1.1930547 
H     0.5687129    2.0830930    0.3128379 
H     1.9106924    3.2213737    0.0856851 
H     0.6149762   -0.2170537   -2.0072575 
H     1.4319216   -2.5596522   -0.3926673 
H    -0.8676711   -3.3616961   -0.2266079 
H    -1.4698353   -1.9977648   -1.1534327 
H    -1.9583431    0.4881393   -1.0645930 
H    -2.6478691    2.7239070   -0.2963391 
H    -2.4059184    3.3817965    2.0642123 
H    -1.4841373    1.8080725    3.7325066 
H    -0.5252864   -0.8400824    3.9310186 
H    -0.0498537   -2.7802493    2.4271044 
H     0.6799927   -4.6268578   -3.0579318 
C     2.6971796   -0.8432014    3.1003286 
O     2.6465181    0.3070917    3.2148157 
O     2.7446860   -1.9980967    3.0555142 
