41
Energy = -1009.669864737
N     0.1839517   -2.4980341   -1.4461309 
C    -0.1837831   -1.3775612   -0.6144539 
C     0.9791848   -0.4633910   -0.1940494 
C     1.9611333   -1.1440211    0.7467711 
C     3.0681681   -0.2316520    1.2563996 
C     4.0418851    0.2239904    0.1852288 
N     5.1117696    1.0123600    0.7791398 
C    -1.1678006   -0.5177985   -1.3949525 
O    -1.0945140   -0.4327956   -2.6088121 
N    -2.0555329    0.2203179   -0.6879376 
C    -2.3030494    0.1350645    0.7319563 
C    -3.3411197    1.2469503    0.9944480 
C    -3.1534515    2.1982651   -0.1804542 
C    -2.8513940    1.2557292   -1.3315868 
C    -2.8840055   -1.1985991    1.1522982 
O    -3.4949773   -1.9518517    0.4496585 
O    -2.6718770   -1.4170720    2.4591772 
H     0.1848170   -2.1934279   -2.4127737 
H     1.1004286   -2.8496669   -1.2118368 
H    -0.6574308   -1.7593987    0.2968464 
H     0.5851468    0.4322845    0.3010282 
H     1.4763705   -0.1212922   -1.1056976 
H     2.4170894   -2.0096977    0.2533861 
H     1.4058572   -1.5417800    1.6028283 
H     2.6192291    0.6495980    1.7319680 
H     3.6404587   -0.7419066    2.0354993 
H     3.4989044    0.7542678   -0.6101859 
H     4.4924584   -0.6585669   -0.2803953 
H     4.7370937    1.8621826    1.1818484 
H     5.7796683    1.2968881    0.0753225 
H    -1.3971116    0.3143572    1.3166178 
H    -4.3461925    0.8202900    0.9655755 
H    -3.1968520    1.7066225    1.9702748 
H    -2.3013880    2.8589979   -0.0035467 
H    -4.0320226    2.8168030   -0.3605688 
H    -2.2769683    1.7009155   -2.1417183 
H    -3.7640696    0.8314087   -1.7580693 
H    -3.1058282   -2.2509238    2.6797207 
C    -3.9644396   -2.3497132   -2.4458390 
O    -4.6564727   -1.4206679   -2.4717405 
O    -3.2909095   -3.2873407   -2.4443219 
