41
Energy = -1196.697359703
N     3.9326764    0.3921312   -0.7463327 
C     2.9583669    1.1736932   -0.0112887 
C     2.4743359    2.3010320   -0.9217819 
O     3.5538602    3.0490813   -1.4057293 
C     1.7408572    0.4676975    0.5773937 
O     0.9284509    1.0939227    1.2306649 
N     1.6257765   -0.8486123    0.3001041 
C     0.5592102   -1.6613814    0.8082736 
C    -0.5276201   -1.9282670   -0.2613603 
C    -1.2134289   -0.6802715   -0.6788686 
C    -2.3105663   -0.0510048   -0.0045850 
C    -3.0895486   -0.3938179    1.1034440 
C    -4.1028968    0.4574673    1.4954686 
C    -4.3565287    1.6489490    0.8018535 
C    -3.6046914    2.0132512   -0.2969365 
C    -2.5843915    1.1542469   -0.6887208 
N    -1.6930530    1.2421970   -1.7246240 
C    -0.8756966    0.1419414   -1.7158426 
C     1.1428697   -2.9744713    1.2650021 
O     2.2438650   -3.3679253    0.9797072 
O     0.2752919   -3.6851798    1.9894999 
H     4.4908662   -0.2150341   -0.1655044 
H     3.5226881   -0.1407745   -1.5013164 
H     3.4731275    1.6395062    0.8335543 
H     1.8924382    1.8590443   -1.7479893 
H     1.8106471    2.9593469   -0.3638788 
H     4.2532228    2.4095719   -1.5849468 
H     2.4179036   -1.3391606   -0.0810952 
H     0.1034749   -1.1482848    1.6576512 
H    -0.0491293   -2.4112466   -1.1176746 
H    -1.2469582   -2.6388661    0.1511748 
H    -2.8983796   -1.3078644    1.6531832 
H    -4.7126522    0.2051748    2.3541672 
H    -5.1549553    2.2986627    1.1378005 
H    -3.8010552    2.9371839   -0.8273323 
H    -1.6415106    1.9950374   -2.3837449 
H    -0.1021303    0.0253722   -2.4584809 
H     0.7033913   -4.5219903    2.2096082 
C    -1.1416362    1.3540745    3.0780994 
O    -1.3789372    2.4141035    2.6878361 
O    -0.9258083    0.3013162    3.5131695 
