36
Energy = -1006.332618139
N     1.5569654    2.1805887   -0.5752555 
C     1.4468261    0.7673456   -0.2718339 
C     2.4418481    0.2152705    0.7678788 
C     2.1796934   -1.2538293    1.0691661 
C     3.8741941    0.4187497    0.3017821 
C     0.0326949    0.5334182    0.2243225 
O    -0.4075404    1.1378691    1.1961552 
N    -0.6949706   -0.3714977   -0.4528279 
C    -1.9454350   -0.8972913    0.0325543 
C    -3.1666319   -0.4467467   -0.7722841 
C    -3.6260978    1.0014234   -0.6722854 
O    -4.5062872    1.3825350   -1.4181162 
N    -3.0792517    1.7690075    0.2875292 
C    -1.8591778   -2.4086412   -0.0281473 
O    -1.0455893   -3.0154901   -0.6710267 
O    -2.8186061   -2.9930920    0.6918486 
H     1.5009288    2.7219112    0.2784583 
H     2.4442391    2.3838135   -1.0122618 
H     1.5896104    0.2138773   -1.2073363 
H     2.2804356    0.7942329    1.6841548 
H     1.1910703   -1.4143592    1.5027063 
H     2.9144194   -1.6373344    1.7790545 
H     2.2500235   -1.8618697    0.1623126 
H     4.1059647    1.4711881    0.1314530 
H     4.5769463    0.0485195    1.0502391 
H     4.0632596   -0.1277435   -0.6272443 
H    -0.2396550   -0.9203517   -1.1647543 
H    -2.0560316   -0.6019495    1.0784897 
H    -3.0061994   -0.6495009   -1.8328261 
H    -4.0305781   -1.0424096   -0.4695838 
H    -2.2261652    1.5287688    0.7786448 
H    -3.3819296    2.7270383    0.3232654 
H    -2.7305220   -3.9469967    0.5708277 
C    -0.3731948    3.8013982    2.2065233 
O     0.7826006    3.8645601    2.1862878 
O    -1.5281897    3.7768162    2.2397849 
