33
Energy = -1062.081518210
N     3.0892138    1.1046087    0.8949968 
C     2.0556107    0.7421761   -0.0340882 
C     2.4803912   -0.4880435   -0.8571365 
O     3.6500436   -0.1780744   -1.5951990 
C     2.7897459   -1.6884819    0.0026335 
C     0.7584422    0.5488725    0.7442981 
O     0.6317540    0.9292480    1.8908063 
N    -0.2581064   -0.0396813    0.0670570 
C    -1.5619908   -0.2034459    0.6668556 
C    -2.4189967    1.0407036    0.4740648 
C    -3.8054192    0.8707714    1.0153044 
O    -4.2889386   -0.1796358    1.3489149 
O    -4.4717309    2.0281576    1.0687159 
C    -2.2045610   -1.4055831    0.0022305 
O    -2.5948249   -1.3829403   -1.1378649 
O    -2.2364475   -2.4768676    0.7811289 
H     2.7037948    1.6430020    1.6580399 
H     3.8436464    1.5984669    0.4466465 
H     1.8233835    1.5407322   -0.7662266 
H     1.6752029   -0.7453678   -1.5611460 
H     3.4284085    0.4658664   -2.2700451 
H     1.9009370   -2.0097631    0.5481320 
H     3.1327675   -2.5124332   -0.6224945 
H     3.5654269   -1.4324427    0.7223355 
H    -0.1638906   -0.2405689   -0.9136180 
H    -1.4178657   -0.3996582    1.7274502 
H    -2.5116764    1.2653533   -0.5923517 
H    -1.9373444    1.8961128    0.9489151 
H    -5.3606743    1.8290139    1.3889268 
H    -2.7199548   -3.1689004    0.3089401 
C    -5.4491355   -2.1472897   -0.7410247 
O    -5.0259378   -3.1174116   -0.2691050 
O    -5.8976409   -1.1969913   -1.2190164 
