32
Energy = -837.7233022001
N    -0.6518790    1.8010414    0.4880786 
C    -0.6210082    0.3518567    0.5412477 
C    -1.1254405   -0.2382290   -0.7831209 
C    -1.1084467   -1.7602833   -0.7572451 
C    -2.5034925    0.3121184   -1.1633096 
C    -3.5965232    0.0809935   -0.1333679 
C     0.7293852   -0.2561779    0.9158886 
O     0.8449630   -1.1047465    1.7805228 
N     1.7938663    0.1965299    0.2053558 
C     3.1210153   -0.2234542    0.5217052 
C     4.1020076    0.8951254    0.3300707 
O     3.8357406    1.9856718   -0.1037785 
O     5.3378297    0.5302788    0.6782621 
H    -0.2198346    2.2173153    1.3007062 
H    -0.1954530    2.1658598   -0.3370187 
H    -1.2856505    0.0225716    1.3438175 
H    -0.4254998    0.0890424   -1.5640599 
H    -1.7309193   -2.1529652    0.0485881 
H    -0.1028474   -2.1538929   -0.6042878 
H    -1.4854378   -2.1575426   -1.7014793 
H    -2.7899368   -0.1511187   -2.1129970 
H    -2.4204301    1.3839772   -1.3520565 
H    -3.7090762   -0.9754786    0.1180572 
H    -3.3918963    0.6296479    0.7874478 
H    -4.5584729    0.4302600   -0.5125085 
H     1.6908477    0.9920445   -0.4028590 
H     3.1522999   -0.5753222    1.5560552 
H     3.4589227   -1.0678268   -0.0918587 
H     5.9170854    1.2845159    0.5120935 
C     2.3873688    3.4556485   -2.0930439 
O     1.5055644    2.7088075   -1.9863786 
O     3.2474669    4.2119675   -2.2242876 
