35
Energy = -1175.370475727
N     2.1490914   -1.6444784   -0.9706785 
C     1.3547293   -0.7686689   -0.1425611 
C     1.7325967    0.6922272   -0.3971089 
C     3.1852481    0.9651682   -0.0279344 
C     3.6001314    2.3716944   -0.3349315 
O     3.9600454    3.1883067    0.4695548 
O     3.5228349    2.6444344   -1.6506957 
C    -0.1410563   -0.9161796   -0.3949485 
O    -0.5887916   -1.2051165   -1.4904119 
N    -0.9538315   -0.6604956    0.6559929 
C    -2.3855934   -0.7451657    0.5102653 
C    -2.9414465    0.4250556   -0.2946632 
C    -2.5595024    1.7490381    0.3015312 
O    -2.1453610    2.6936136   -0.3080494 
O    -2.7481043    1.7792693    1.6376372 
C    -2.7520938   -2.1164705   -0.0492591 
O    -2.2072315   -3.1297766    0.2904547 
O    -3.7761172   -2.0722116   -0.8999562 
H     1.9918168   -2.6103466   -0.7132963 
H     1.8261707   -1.5598087   -1.9284589 
H     1.5623059   -1.0066430    0.9069916 
H     1.5670926    0.9127127   -1.4544739 
H     1.0680779    1.3496866    0.1701281 
H     3.3540443    0.8034126    1.0364919 
H     3.8201823    0.2742333   -0.5868631 
H     3.7910057    3.5650764   -1.7576906 
H    -0.5607183   -0.5452006    1.5718217 
H    -2.8119854   -0.7189245    1.5155489 
H    -4.0315570    0.3666050   -0.3227893 
H    -2.5739058    0.3947214   -1.3170262 
H    -2.5015336    2.6653317    1.9303733 
H    -3.9026478   -2.9682031   -1.2385662 
C    -0.9377623   -4.1139906   -2.1593962 
O     0.1048138   -4.2997947   -1.6967044 
O    -1.9756074   -3.9623128   -2.6492620 
