37
Energy = -1313.145557618
N    -2.9486430    1.6328306   -0.1757942 
C    -2.2532083    0.4088287    0.1498462 
C    -3.0109200   -0.6293330   -0.6791735 
C    -4.4444277   -0.0625739   -0.7503545 
C    -4.3538537    1.3029764   -0.0562131 
C    -0.7649762    0.5734131   -0.0672637 
O    -0.1978084    1.6087225    0.2442136 
N    -0.1105414   -0.4931625   -0.5612327 
C     1.3114148   -0.4802810   -0.7810104 
C     2.0839674   -0.6250365    0.5426477 
C     3.5689851   -0.3233447    0.4520255 
S     4.3626609   -0.2038780    2.0666819 
C     3.7563078    1.4005076    2.6033468 
C     1.6172438   -1.5999128   -1.7440247 
O     0.8503095   -2.4830566   -2.0251119 
O     2.8518446   -1.5198080   -2.2467513 
H    -2.6422029    2.4107600    0.3905158 
H    -2.3573342    0.1421538    1.2206166 
H    -2.5822304   -0.6937178   -1.6807690 
H    -2.9741504   -1.6224784   -0.2301810 
H    -5.1702685   -0.7117637   -0.2610622 
H    -4.7555966    0.0521069   -1.7881897 
H    -4.6785946    1.2080102    0.9930431 
H    -4.9759082    2.0629535   -0.5311709 
H    -0.6062143   -1.3152993   -0.8658186 
H     1.5982189    0.4695908   -1.2414281 
H     1.9226926   -1.6236348    0.9556640 
H     1.6110247    0.0830621    1.2238552 
H     3.7450684    0.6060809   -0.0945555 
H     4.1061987   -1.1100995   -0.0768655 
H     2.6686958    1.4269049    2.6735251 
H     4.1677966    1.5778295    3.5963529 
H     4.1050126    2.1889428    1.9350755 
H     2.9717267   -2.2822389   -2.8271900 
C     1.8567878    3.4721428    0.2319449 
O     1.3426488    4.0474530    1.0911771 
O     2.4159612    2.9280571   -0.6247934 
