43
Energy = -1197.920067116
N    -2.9564940   -0.2258843   -2.1497971 
C    -2.3955385    0.0867403   -0.8531176 
C    -3.0014559   -0.8081384    0.2257507 
C    -4.4790330   -0.5299029    0.4478646 
C    -4.9389798   -1.0713403    1.7825172 
O    -4.3427214   -0.8313715    2.8158622 
N    -6.0625659   -1.8236714    1.7609828 
C    -0.8755211   -0.0655278   -0.8083871 
O    -0.2688248   -0.7600824   -1.6054717 
N    -0.2674879    0.5874564    0.2042746 
C     1.1322099    0.4175623    0.4745353 
C     1.9874301    1.4031610   -0.3532914 
C     3.4596294    1.1291138   -0.3180437 
C     3.9782622    0.0226294   -0.9857122 
C     5.3351935   -0.2528519   -0.9492786 
C     6.1964001    0.5780545   -0.2460508 
C     5.6909827    1.6852994    0.4173433 
C     4.3310878    1.9559883    0.3807210 
C     1.3464977    0.6207928    1.9545436 
O     0.6025428    1.2470571    2.6647959 
O     2.4680128    0.0510984    2.3901589 
H    -2.4720211   -1.0424124   -2.5091319 
H    -2.7503898    0.5175726   -2.8044521 
H    -2.6444666    1.1235498   -0.6044992 
H    -2.8503478   -1.8538649   -0.0599676 
H    -2.4788695   -0.6583254    1.1700882 
H    -4.6347540    0.5526290    0.4947349 
H    -5.0757706   -0.9037337   -0.3844802 
H    -6.4190811   -2.1833927    2.6285720 
H    -6.5482706   -2.0235961    0.9080922 
H    -0.8065847    1.1257009    0.8659321 
H     1.4230589   -0.5987922    0.2029506 
H     1.6165690    1.3106494   -1.3759899 
H     1.7729496    2.4199986   -0.0161089 
H     3.3086717   -0.6242039   -1.5429804 
H     5.7236080   -1.1161368   -1.4760135 
H     7.2580286    0.3651364   -0.2200932 
H     6.3569304    2.3422529    0.9638305 
H     3.9396690    2.8236029    0.9010963 
H     2.5561282    0.2688148    3.3270333 
C    -2.4496729    1.3941970    3.3492183 
O    -2.5552809    1.7743596    2.2572610 
O    -2.3334974    1.0483685    4.4422047 
