40
Energy = -1120.782899992
N     0.6867125   -0.8368341    2.4645469 
C     0.4294911   -0.6048894    1.0595670 
C     1.1598544   -1.5469508    0.0900656 
C     2.6778779   -1.4609204    0.1600865 
C     3.2486593   -0.1028746   -0.2159510 
C     4.7719243   -0.0914678   -0.2474646 
N     5.3956458    1.1741164   -0.5865704 
C    -1.0648353   -0.7699799    0.8433142 
O    -1.7243012   -1.5663821    1.4885489 
N    -1.5961244   -0.0153062   -0.1376669 
C    -2.9809835   -0.1026685   -0.4977998 
C    -3.8810828    0.5547339    0.5635859 
C    -5.3536112    0.3468955    0.3590396 
O    -6.1807753    1.2156977    0.3547064 
O    -5.6596479   -0.9527719    0.2153191 
C    -3.1428082    0.5779947   -1.8372269 
O    -2.2886815    1.2299078   -2.3754410 
O    -4.3621868    0.3950542   -2.3432526 
H     1.6667875   -1.0074294    2.6385508 
H     0.1603059   -1.6517323    2.7600314 
H     0.6963159    0.4300148    0.8213174 
H     0.8374233   -1.3206303   -0.9321760 
H     0.8346991   -2.5692729    0.3056312 
H     3.0948298   -2.2207403   -0.5086616 
H     3.0247699   -1.7393259    1.1620037 
H     2.8668801    0.1949921   -1.2001478 
H     2.9084974    0.6637029    0.4892152 
H     5.1549227   -0.4060925    0.7288599 
H     5.1232722   -0.8436160   -0.9611641 
H     5.1240247    1.8930316    0.0717496 
H     5.0918345    1.4870275   -1.4996621 
H    -1.0410788    0.6599169   -0.6381261 
H    -3.2756406   -1.1507584   -0.5918156 
H    -3.6079117    0.0934144    1.5153103 
H    -3.6884507    1.6242378    0.6257346 
H    -6.6159881   -1.0023380    0.0979106 
H    -4.4193438    0.9068884   -3.1598557 
C    -0.9221111    1.0298351    3.8955001 
O    -0.6998482    0.5425987    4.9195370 
O    -1.1882177    1.5669653    2.9032698 
