30
Energy = -1022.803232782
N     2.7785312   -0.3164134    0.8477469 
C     2.3980823    0.9494222    0.2468050 
C     3.1477659    1.2974306   -1.0350208 
O     4.5329596    1.4230240   -0.8203460 
C     0.8964681    1.0334153   -0.0037309 
O     0.4107225    1.9413636   -0.6586247 
N     0.1708862    0.0475333    0.5483613 
C    -1.2619440    0.0438241    0.4984046 
C    -1.7952136   -0.2635067   -0.9044306 
C    -3.2106738    0.1983104   -1.0974676 
O    -3.6881630    1.1818136   -0.6014221 
O    -3.8861698   -0.5942519   -1.9401130 
C    -1.7506937   -0.9659725    1.5119334 
O    -1.0384848   -1.6026513    2.2397384 
O    -3.0800294   -1.0836915    1.4969628 
H     3.6162385   -0.2357149    1.4034417 
H     2.9168161   -1.0402982    0.1542585 
H     2.6147947    1.7378775    0.9746206 
H     2.7915646    2.2535820   -1.4123419 
H     2.9291675    0.5372141   -1.7995562 
H     4.8829438    0.5647855   -0.5768045 
H     0.6430389   -0.6064066    1.1586600 
H    -1.6573819    1.0257023    0.7844854 
H    -1.1934910    0.3157760   -1.6103407 
H    -1.6944702   -1.3182459   -1.1583495 
H    -4.7583354   -0.1961790   -2.0554068 
H    -3.3164942   -1.7436476    2.1603298 
C    -1.8659447    3.4782520   -1.3818019 
O    -1.8780687    4.0005005   -0.3511605 
O    -1.8732661    2.9854243   -2.4294103 
