47
Energy = -1296.093144083
N     1.9685498   -0.4604022   -1.4976900 
C     1.8384635   -1.0647069   -0.1833609 
C     2.3325153   -0.0936848    0.8957527 
C     3.7887630    0.2315381    0.7490172 
C     4.2107743    1.4463075    0.2230199 
C     5.5583279    1.7310155    0.0499918 
C     6.5144955    0.7907131    0.4064064 
O     7.8455819    1.0068254    0.2646438 
C     6.1120719   -0.4303928    0.9379898 
C     4.7669455   -0.6976200    1.1029510 
C     0.3930687   -1.4226070    0.1408935 
O     0.1140662   -2.1371576    1.0857444 
N    -0.5181431   -0.8596795   -0.6781970 
C    -1.9291948   -1.0062994   -0.4502337 
C    -2.4896772    0.1399986    0.4155647 
C    -3.9790890    0.0740254    0.5723069 
C    -4.5627390   -0.8594035    1.4240331 
C    -5.9405679   -0.9602882    1.5256583 
C    -6.7583419   -0.1264961    0.7764558 
C    -6.1884307    0.8109393   -0.0708256 
C    -4.8081488    0.9075063   -0.1721460 
C    -2.6800366   -1.0762189   -1.7590167 
O    -3.4885761   -1.9159353   -2.0428834 
O    -2.3744618   -0.0469209   -2.5631217 
H     1.9753139   -1.1653775   -2.2224443 
H     2.8456796    0.0412409   -1.5613051 
H     2.4018160   -1.9998969   -0.0748906 
H     1.7388367    0.8228674    0.8346629 
H     2.1315218   -0.5532021    1.8647793 
H     3.4732471    2.1927339   -0.0517919 
H     5.8638411    2.6890505   -0.3585149 
H     7.9890403    1.8826687   -0.0983249 
H     6.8666802   -1.1532826    1.2206237 
H     4.4659919   -1.6511948    1.5234270 
H    -0.1614596   -0.2242044   -1.3783806 
H    -2.0866090   -1.9546030    0.0610199 
H    -2.2005347    1.0876081   -0.0431492 
H    -1.9897556    0.0694542    1.3838036 
H    -3.9285038   -1.5153302    2.0104812 
H    -6.3785911   -1.6939104    2.1913683 
H    -7.8354446   -0.2072296    0.8541838 
H    -6.8193054    1.4721406   -0.6532269 
H    -4.3652497    1.6395403   -0.8387199 
H    -2.9698948   -0.0895612   -3.3243118 
C    -5.8377084   -0.8314002   -3.2423567 
O    -6.5560888   -1.6021330   -2.7767044 
O    -5.1479717   -0.0383708   -3.7373738 
