50
Energy = -1352.389854544
N     1.5463978   -2.9081809    3.0328947 
C     1.7408523   -1.5949327    2.4390529 
C     3.0872243   -1.5513149    1.7216769 
C     3.3771846   -0.2492065    1.0282908 
C     3.2767724    0.9628053    1.7073362 
C     3.5062499    2.1638825    1.0555255 
C     3.8446685    2.1758274   -0.2900726 
C     3.9574701    0.9762529   -0.9752138 
C     3.7253348   -0.2232177   -0.3186470 
C     0.5388892   -1.1856600    1.5914945 
O    -0.4740188   -0.7425635    2.1161257 
N     0.6191003   -1.4052388    0.2671924 
C    -0.4274153   -0.9976297   -0.6286797 
C    -0.4157197    0.5376571   -0.8527213 
C    -1.6830015    1.0671203   -1.4131476 
C    -2.9404819    1.1091009   -0.7239627 
C    -3.3414707    0.7461637    0.5652121 
C    -4.6625419    0.9282429    0.9211007 
C    -5.5902491    1.4662919    0.0179574 
C    -5.2191654    1.8382911   -1.2599749 
C    -3.8879764    1.6539497   -1.6177597 
N    -3.2291424    1.9270629   -2.7885656 
C    -1.9082566    1.5758551   -2.6593345 
C    -0.2031932   -1.7134671   -1.9342228 
O     0.8702723   -2.1167142   -2.3044485 
O    -1.3143433   -1.8208649   -2.6615162 
H     1.4331300   -3.6088026    2.3102885 
H     0.7021649   -2.9133606    3.5918402 
H     1.7510419   -0.8724177    3.2578947 
H     3.1474166   -2.3732157    0.9995797 
H     3.8491225   -1.7683634    2.4747075 
H     3.0113426    0.9712053    2.7582078 
H     3.4183311    3.0956126    1.6010947 
H     4.0205564    3.1151063   -0.7997173 
H     4.2226131    0.9709059   -2.0255551 
H     3.8063869   -1.1561758   -0.8673606 
H     1.4932329   -1.6586465   -0.1624452 
H    -1.3938176   -1.2793517   -0.2101612 
H    -0.2389930    0.9702882    0.1344321 
H     0.4431068    0.7994493   -1.4754466 
H    -2.6283529    0.3371185    1.2720688 
H    -4.9872020    0.6537576    1.9171116 
H    -6.6196656    1.5962537    0.3290894 
H    -5.9397246    2.2577082   -1.9522406 
H    -3.6382106    2.3476547   -3.6004642 
H    -1.2185046    1.7162948   -3.4769824 
H    -1.0669992   -2.2390526   -3.4961362 
C    -2.1178183   -1.4295475    4.2176239 
O    -1.3744043   -2.2408484    4.5808964 
O    -2.8947319   -0.6374332    3.8971953 
