33
Energy = -1235.797046814
N    -1.8527308   -2.1028996    1.0766373 
C    -1.2793158   -1.1849761    0.1173520 
C    -2.2583897   -0.0391247   -0.2204222 
C    -2.6489645    0.7499974    1.0201809 
C    -3.4841446   -0.5935822   -0.9273908 
C     0.0459181   -0.6052250    0.6086811 
O     0.3524133   -0.6078387    1.7897847 
N     0.8339178   -0.0584920   -0.3401256 
C     2.0915614    0.5743977   -0.0289590 
C     3.2090999   -0.4740563    0.0296692 
S     4.8603361    0.1641654    0.3739738 
C     2.3618922    1.5915146   -1.1152266 
O     2.1321229    1.3849389   -2.2781098 
O     2.8727074    2.7277231   -0.6511763 
H    -1.6203093   -1.7775691    2.0087605 
H    -1.4249525   -3.0141074    0.9877615 
H    -1.0883715   -1.7287734   -0.8139922 
H    -1.7374393    0.6371347   -0.9080660 
H    -3.3063596    1.5784460    0.7509524 
H    -1.7799415    1.1619248    1.5368167 
H    -3.1895748    0.1123491    1.7226484 
H    -3.9882786   -1.3190943   -0.2876647 
H    -3.2147225   -1.0943543   -1.8606081 
H    -4.1874745    0.2064940   -1.1661217 
H     0.5817569   -0.1112835   -1.3139443 
H     2.0099474    1.0672038    0.9388005 
H     3.2825356   -0.9708560   -0.9393539 
H     2.9285753   -1.2182572    0.7736898 
H     4.5932186    0.6102257    1.6107688 
H     3.0604348    3.2920512   -1.4127396 
C     1.9454494   -0.1253308    4.0421031 
O     1.1678051   -0.6606818    4.7059467 
O     2.7533792    0.4201045    3.4147503 
