46
Energy = -1349.270279558
N    -4.1369200   -1.6484060    1.3144436 
C    -3.4039818   -0.5905562    0.6499187 
C    -4.0515974    0.7634151    0.9579546 
C    -5.4555841    0.8674004    0.4013529 
C    -5.4869840    1.0803046   -1.0816821 
O    -4.5288444    1.2140826   -1.7990683 
O    -6.7414546    1.1185274   -1.5558386 
C    -1.9462739   -0.5197291    1.0942280 
O    -1.6087362   -0.8201015    2.2270707 
N    -1.0893817   -0.0468009    0.1679102 
C     0.3010987    0.1722862    0.4550123 
C     1.1347330   -1.0973647    0.1650621 
C     2.5867847   -0.9745143    0.4595806 
C     3.6114023   -0.5088905   -0.4293372 
C     3.6175619   -0.0805163   -1.7598553 
C     4.8107507    0.3179114   -2.3277489 
C     6.0054033    0.2968505   -1.5942529 
C     6.0313046   -0.1230975   -0.2788233 
C     4.8272932   -0.5220748    0.2911258 
N     4.5442857   -0.9740291    1.5522705 
C     3.2036956   -1.2457912    1.6477003 
C     0.7801916    1.3279875   -0.3892513 
O     0.3769114    1.5635232   -1.4994994 
O     1.7239654    2.0460548    0.2151478 
H    -3.8314232   -1.6782621    2.2821468 
H    -3.8936424   -2.5457566    0.9163073 
H    -3.4432276   -0.7545522   -0.4302058 
H    -4.0802712    0.8818721    2.0440172 
H    -3.4313264    1.5676780    0.5575487 
H    -6.0200275   -0.0406813    0.6300218 
H    -6.0109474    1.6926166    0.8556044 
H    -6.6754433    1.2684481   -2.5069162 
H    -1.4006824    0.1022778   -0.7795025 
H     0.4019495    0.4202215    1.5112214 
H     0.9779994   -1.3674711   -0.8829114 
H     0.6857635   -1.8855480    0.7718426 
H     2.7004288   -0.0554602   -2.3371626 
H     4.8287651    0.6513685   -3.3579769 
H     6.9256470    0.6148215   -2.0685662 
H     6.9566511   -0.1390045    0.2847421 
H     5.2136280   -1.1074945    2.2857915 
H     2.7794768   -1.6171940    2.5675627 
H     2.0456018    2.6952461   -0.4238639 
C    -2.0583890    1.0653505   -3.2912081 
O    -1.9715097   -0.0159927   -2.8808524 
O    -2.1378259    2.1318055   -3.7227453 
