43
Energy = -1466.663262361
N     3.0979042   -0.0712733    1.8825960 
C     2.4828492    1.0589324    1.2374928 
C     3.0284414    1.2560429   -0.1781731 
C     4.5487484    1.2139215   -0.2584141 
S     5.2496053   -0.4363879   -0.4961529 
C     4.9404838   -0.6420427   -2.2539107 
C     0.9596692    1.0742958    1.1316788 
O     0.3541045    2.0997605    0.8614627 
N     0.3382400   -0.1020114    1.3242747 
C    -1.0866528   -0.2294551    1.2056780 
C    -1.5170559   -0.3252525   -0.2755320 
C    -2.9960391   -0.2371048   -0.4955968 
C    -3.7343594   -1.3525564   -0.8728255 
C    -5.1060598   -1.2654476   -1.0600598 
C    -5.7568931   -0.0565935   -0.8686155 
C    -5.0275160    1.0637955   -0.4949416 
C    -3.6572299    0.9747424   -0.3121053 
C    -1.4966406   -1.4669713    1.9639569 
O    -0.7605500   -2.3947502    2.1810556 
O    -2.7722627   -1.4351222    2.3429170 
H     2.6888917   -0.3220954    2.7686143 
H     3.2314130   -0.8748183    1.2866482 
H     2.7240468    1.9607347    1.8119108 
H     2.6551228    2.2175043   -0.5354167 
H     2.6046782    0.4918574   -0.8388842 
H     4.9110746    1.8417461   -1.0749287 
H     4.9932066    1.5905365    0.6639511 
H     5.4826791    0.1037355   -2.8368935 
H     3.8761972   -0.5855521   -2.4865174 
H     5.3012051   -1.6327953   -2.5284782 
H     0.8674710   -0.9298758    1.5460786 
H    -1.5626378    0.6483095    1.6460731 
H    -1.0158402    0.5073254   -0.7729154 
H    -1.1171697   -1.2524148   -0.6930820 
H    -3.2284926   -2.3001722   -1.0248031 
H    -5.6664070   -2.1433066   -1.3585715 
H    -6.8277668    0.0143697   -1.0154084 
H    -5.5272380    2.0139854   -0.3501701 
H    -3.0917376    1.8560083   -0.0288065 
H    -2.9699504   -2.2824320    2.7620195 
C    -0.8169964    4.5571177    0.3015940 
O     0.2123686    5.0524540    0.1258705 
O    -1.8698142    4.1047033    0.4660575 
