48
Energy = -1105.478154665
N     1.7273563   -2.7721534    2.3610584 
C     1.8570497   -1.5076587    1.6622395 
C     3.0910587   -1.5473550    0.7667748 
C     3.3745682   -0.2523935    0.0258332 
C     4.6473125   -0.3191027   -0.7997720 
C     4.9352925    0.9679299   -1.5473913 
N     6.1410166    0.8381692   -2.3504550 
C     0.6323524   -1.2000254    0.8073313 
O     0.1636589   -2.0373453    0.0516384 
N     0.1157742    0.0373756    0.9279634 
C    -0.9763371    0.4939638    0.1078599 
C    -2.3328512    0.0496831    0.6772564 
C    -3.5247299    0.2632838   -0.2380447 
C    -4.7818130   -0.3962571    0.3031753 
C    -5.9977162   -0.2266572   -0.6019590 
N    -6.4772586    1.1300558   -0.8044968 
C    -0.8638229    1.9960967    0.0212155 
O    -0.2491371    2.6748080    0.8019312 
O    -1.5383263    2.5072636   -1.0120571 
H     1.4868703   -3.4879706    1.6838493 
H     0.9594002   -2.7349384    3.0195318 
H     1.9875417   -0.7169347    2.4094110 
H     3.9395806   -1.8174904    1.4002959 
H     2.9583553   -2.3620519    0.0473946 
H     3.4468069    0.5742845    0.7432004 
H     2.5346995   -0.0097203   -0.6343003 
H     5.4943946   -0.5525958   -0.1432977 
H     4.5843351   -1.1376634   -1.5226318 
H     4.9697317    1.7999177   -0.8258550 
H     4.1018960    1.1802659   -2.2245223 
H     6.9455963    0.6911239   -1.7542977 
H     6.3180839    1.6844980   -2.8743469 
H     0.5573766    0.7258463    1.5159514 
H    -0.8704044    0.0667667   -0.8928807 
H    -2.2236723   -1.0185032    0.8764603 
H    -2.4891051    0.5424975    1.6423816 
H    -3.6995281    1.3317252   -0.3860524 
H    -3.2984332   -0.1561738   -1.2237038 
H    -5.0141151    0.0081606    1.2963297 
H    -4.5921019   -1.4664108    0.4405590 
H    -5.7730659   -0.6511608   -1.5855604 
H    -6.8261603   -0.8172386   -0.2010767 
H    -6.6902819    1.5694674    0.0819840 
H    -5.7738795    1.6997091   -1.2546945 
H    -1.4345943    3.4665739   -0.9692373 
C    -1.6187970   -3.5785380   -1.4397084 
O    -0.8455634   -4.4351968   -1.4860423 
O    -2.4265643   -2.7483863   -1.4178820 
