39
Energy = -1211.774132509
N    -0.3549855    0.4947326   -3.4087899 
C    -0.9946376    0.7089636   -2.1226880 
C    -2.1157392   -0.3342474   -1.9662882 
C    -2.7711741   -0.3377827   -0.6318770 
C    -3.6706357    0.5498509   -0.1097506 
N    -3.8918923    0.1357664    1.1759275 
C    -3.1381736   -0.9666376    1.3836661 
N    -2.4540151   -1.2801844    0.3137287 
C    -0.0089242    0.5357721   -0.9691506 
O    -0.1827782    1.0991433    0.0927569 
N     1.0114320   -0.3105568   -1.2501217 
C     1.7557174   -1.0644089   -0.2582055 
C     2.2849347   -0.2521276    0.9119478 
C     3.0798079    0.9530177    0.4373493 
C     3.8169459    1.6839129    1.5194490 
O     4.8941909    2.2022496    1.3922293 
O     3.1327935    1.7318856    2.6758436 
C     0.8951124   -2.2672599    0.1279612 
O     0.4633833   -3.0246452   -0.7031721 
O     0.6620929   -2.3882263    1.4285376 
H     0.1995353    1.2929244   -3.6863967 
H    -1.0416969    0.3284012   -4.1317074 
H    -1.4247082    1.7088173   -1.9937941 
H    -1.6934647   -1.3256608   -2.1455460 
H    -2.8521751   -0.1443809   -2.7535075 
H    -4.1428875    1.4260550   -0.5195150 
H    -4.4965773    0.5768455    1.8444324 
H    -3.1280134   -1.5011097    2.3205500 
H     0.9427818   -0.7219487   -2.1712856 
H     2.6081107   -1.4944399   -0.7939939 
H     2.9192396   -0.9141700    1.5062224 
H     1.4661221    0.0714548    1.5472448 
H     2.3926082    1.6746996   -0.0150479 
H     3.8184714    0.6901124   -0.3209282 
H     3.6752839    2.2413451    3.2899763 
H     0.0162871   -3.1047550    1.5353520 
C    -2.0459660   -4.0891582    0.0175412 
O    -2.4399799   -4.0830410   -1.0650112 
O    -1.6822442   -4.1703122    1.1190552 
