38
Energy = -1007.496608564
N    -4.9182722   -0.3415348    0.0253926 
C    -3.5575685   -0.8236036    0.0961045 
C    -3.3228915   -1.8180519   -1.0391689 
O    -2.1403117   -2.5857581   -0.8844108 
C    -2.5305357    0.3168830    0.1125379 
O    -2.8686633    1.4695300    0.3066132 
N    -1.2408511   -0.0475987   -0.0702699 
C    -0.2349009    0.9521548   -0.2763881 
C     1.1665065    0.3589680   -0.1547623 
C     1.4654565   -0.1584586    1.2441823 
C     2.8142748   -0.8513238    1.3709564 
C     4.0085239    0.0651962    1.1786071 
N     5.2455907   -0.6590384    1.4299362 
C    -0.4064398    1.6104438   -1.6353980 
O    -1.0500204    1.1542096   -2.5440775 
O     0.2742404    2.7548557   -1.7151952 
H    -5.0013980    0.4579258    0.6433356 
H    -5.0860512    0.0379736   -0.9003218 
H    -3.4359971   -1.3691122    1.0422711 
H    -3.2102809   -1.2841150   -1.9856439 
H    -4.2039965   -2.4614924   -1.1121555 
H    -2.2794790   -3.2182496   -0.1775460 
H    -1.0764602   -0.9859005   -0.4112952 
H    -0.3662983    1.7380184    0.4711346 
H     1.8838763    1.1296168   -0.4398416 
H     1.2715931   -0.4536870   -0.8836930 
H     1.4142410    0.6768141    1.9515593 
H     0.6772394   -0.8542633    1.5421529 
H     2.9004162   -1.3099505    2.3593053 
H     2.8700608   -1.6727627    0.6454322 
H     3.9685400    0.5257724    0.1805403 
H     3.9445810    0.8841492    1.9023935 
H     5.3623042   -1.3997469    0.7499134 
H     6.0451924   -0.0479453    1.3323140 
H     0.1327391    3.1191381   -2.6019642 
C    -1.3598588    2.6577334   -4.9000790 
O    -2.1217378    1.9286342   -5.3627073 
O    -0.5939874    3.4220081   -4.4756946 
