36
Energy = -1101.376189101
N     3.3243658   -1.7930964   -0.4846395 
C     2.5955365   -0.7865062    0.2591105 
C     3.3022868    0.5759542    0.0706204 
O     4.6529409    0.4095986    0.4178822 
C     3.1517203    1.1256922   -1.3360541 
C     1.1341403   -0.7072697   -0.1596017 
O     0.7299878   -1.2326706   -1.1823292 
N     0.3401650    0.0153633    0.6542095 
C    -1.0360745    0.3010356    0.3428044 
C    -1.9336994   -0.8997290    0.6934782 
C    -3.4249595   -0.7355067    0.4671912 
C    -3.8126738   -0.3943776   -0.9418575 
O    -3.0746226   -0.3385909   -1.8886401 
O    -5.1297879   -0.1592499   -1.0425388 
C    -1.4117056    1.5422537    1.1130842 
O    -0.7965226    1.9741075    2.0517407 
O    -2.5263161    2.1143947    0.6468141 
H     3.2735980   -2.6881514   -0.0201373 
H     2.8755700   -1.9126214   -1.3868506 
H     2.6546799   -1.0202794    1.3254902 
H     2.8828317    1.2909958    0.7851253 
H     4.9050909   -0.4286620    0.0052754 
H     3.7224411    2.0499644   -1.4235796 
H     3.5403284    0.4169915   -2.0700824 
H     2.1086559    1.3348709   -1.5824100 
H     0.7142302    0.4637478    1.4757943 
H    -1.1371481    0.5001229   -0.7260158 
H    -1.5615544   -1.7287958    0.0911764 
H    -1.7631866   -1.1548537    1.7422321 
H    -3.8693922    0.0155917    1.1221830 
H    -3.9317884   -1.6736550    0.7119766 
H    -5.3067593    0.0377913   -1.9707326 
H    -2.7052331    2.8842099    1.2020288 
C    -1.1964348   -2.3332132   -2.9396836 
O    -0.8370143   -1.6432755   -3.7927947 
O    -1.5692710   -3.0602080   -2.1178139 
