46
Energy = -1266.636329392
N     2.4748900    0.6633689    1.7645847 
C     2.7010538    1.0505763    0.3816176 
C     3.1868384   -0.1516124   -0.4324967 
C     4.4888475   -0.6704535    0.0642927 
C     4.7876125   -1.9196682    0.5374273 
N     6.1171572   -1.8784783    0.8690549 
C     6.5603823   -0.6281655    0.5971671 
N     5.6072490    0.1240226    0.1155464 
C     1.4310206    1.5746399   -0.2727908 
O     1.4618078    2.1523340   -1.3480149 
N     0.3013127    1.3174439    0.4056168 
C    -0.9822111    1.7397374   -0.0726166 
C    -1.5470023    0.8209177   -1.1670488 
C    -1.6969141   -0.6450064   -0.7896650 
C    -2.8295822   -0.9550759    0.1875057 
N    -4.1403385   -0.5455870   -0.2519859 
C    -4.8183695   -1.2379083   -1.2325492 
N    -4.5235094   -2.3662940   -1.7501503 
N    -5.9514356   -0.5635231   -1.6645069 
C    -1.8929625    1.9294109    1.1125129 
O    -1.5903031    1.7534711    2.2612799 
O    -3.1179450    2.3465529    0.7459495 
H     2.5505387    1.4605671    2.3816632 
H     3.1796309   -0.0033450    2.0530395 
H     3.4507426    1.8409691    0.2666589 
H     3.2768052    0.1683050   -1.4722687 
H     2.4353510   -0.9449479   -0.3892400 
H     4.1918929   -2.8096615    0.6493965 
H     6.6609714   -2.6367106    1.2387278 
H     7.5813874   -0.3242438    0.7692312 
H     0.4000898    0.8835195    1.3134608 
H    -0.8707476    2.7277201   -0.5332151 
H    -2.4958912    1.2319176   -1.5177430 
H    -0.8512210    0.9037510   -2.0030969 
H    -0.7577138   -1.0115408   -0.3639479 
H    -1.8627958   -1.2117046   -1.7090798 
H    -2.6435198   -0.4897004    1.1575369 
H    -2.8574067   -2.0294666    0.3849656 
H    -4.2932372    0.4497003   -0.2615324 
H    -3.6204321   -2.7002893   -1.4370229 
H    -6.5120878   -1.1481758   -2.2633130 
H    -6.4912460   -0.1337120   -0.9301819 
H    -3.6139290    2.4847276    1.5626619 
C     0.3057677    3.7697722   -3.3336465 
O     1.2292841    3.6151451   -4.0088711 
O    -0.6438322    3.9540411   -2.6948854 
