34
Energy = -1310.975282291
N    -1.4753278   -1.8330984   -2.7236218 
C    -1.1519919   -0.9095465   -1.6604124 
C    -1.9783484   -1.2226804   -0.3966244 
C    -3.0774305   -0.2029520   -0.1587787 
S    -2.4655824    1.4376130    0.3017947 
C    -2.0935542    1.1591809    2.0404511 
C     0.3287017   -0.8873768   -1.2959071 
O     1.0863178   -1.7968770   -1.5598243 
N     0.7145334    0.2430430   -0.6348980 
C     1.9763438    0.2989455    0.0432789 
C     2.5099396    1.7318567    0.0403275 
O     2.7020578    2.1988689   -1.2643488 
C     1.8777504   -0.2452935    1.4531838 
O     0.8468878   -0.5464602    2.0008920 
O     3.0712257   -0.3396701    2.0337770 
H    -1.0240630   -2.7201378   -2.5262671 
H    -1.0676932   -1.5137803   -3.5934920 
H    -1.4143269    0.0994996   -1.9947417 
H    -1.3400466   -1.2859215    0.4880810 
H    -2.4287328   -2.2083283   -0.5370110 
H    -3.7674351   -0.5296925    0.6219146 
H    -3.6617769   -0.0583123   -1.0700270 
H    -1.7101187    2.1000895    2.4345699 
H    -1.3351886    0.3890535    2.1723444 
H    -3.0015538    0.8968990    2.5837694 
H    -0.0415091    0.8243865   -0.2827937 
H     2.6753905   -0.3363986   -0.5052306 
H     3.4746676    1.7640276    0.5448118 
H     1.8139652    2.3758432    0.5992310 
H     1.9048197    1.9998876   -1.7630501 
H     2.9397993   -0.6874194    2.9293730 
C     0.8794704   -1.4043743    4.6680085 
O    -0.2685877   -1.4691644    4.7368023 
O     2.0397012   -1.3489359    4.6417725 
