33
Energy = -984.0343066508
N     1.4404343   -1.9613856    0.3024008 
C     0.7099638   -0.7186256    0.2454629 
C     1.2981279    0.3385316   -0.7183848 
C     2.6457990    0.7989419   -0.2956919 
C     3.0044469    2.0155659    0.2172799 
N     4.3457470    1.9232877    0.4837632 
C     4.7431312    0.6790918    0.1322083 
N     3.7467557   -0.0234168   -0.3405006 
C    -0.7095224   -1.0127751   -0.2078537 
O    -0.9653626   -1.8880187   -1.0153881 
N    -1.6612309   -0.2020866    0.3041630 
C    -3.0257503   -0.2904093   -0.1345936 
C    -3.7915853   -1.4256172    0.5458689 
C    -3.6982375    1.0326953    0.1225476 
O    -3.2332015    1.9330247    0.7734923 
O    -4.9071895    1.0973474   -0.4395630 
H     1.1322273   -2.5419700   -0.4693906 
H     2.4311372   -1.7832825    0.1849246 
H     0.6735599   -0.2670520    1.2437315 
H     0.6287651    1.2011606   -0.7695705 
H     1.3480382   -0.1062835   -1.7159785 
H     2.4357490    2.9081444    0.4135294 
H     4.9280645    2.6499911    0.8577123 
H     5.7623645    0.3415680    0.2375165 
H    -1.4131064    0.5429628    0.9345866 
H    -3.0345204   -0.4734508   -1.2133267 
H    -3.2709380   -2.3594893    0.3410291 
H    -3.8275363   -1.2701454    1.6253744 
H    -4.8083639   -1.4929892    0.1604226 
H    -5.2842546    1.9548369   -0.2062208 
C    -1.1157747    3.3180300    2.1196870 
O    -0.3860733    2.4699462    1.8145674 
O    -1.8145114    4.1792553    2.4379178 
