42
Energy = -1217.782326008
N    -2.9827048    2.3347098    0.2954853 
C    -2.4922164    0.9780744    0.4103838 
C    -3.3157869    0.0402194   -0.4739979 
C    -4.7616123   -0.0106274   -0.0320393 
C    -5.6230903   -0.8337945   -0.9384435 
O    -5.2697422   -1.3783228   -1.9496598 
O    -6.8902608   -0.9062378   -0.4892823 
C    -1.0220824    0.8549417    0.0117102 
O    -0.4873883    1.6541890   -0.7368141 
N    -0.3752071   -0.2185121    0.5121150 
C     0.9765063   -0.5217144    0.1342184 
C     1.9901762    0.2779640    0.9844803 
C     3.4053117    0.1852676    0.5033631 
C     3.7892237    0.8444681   -0.6614723 
C     5.0885751    0.7493589   -1.1315449 
C     6.0266279   -0.0043238   -0.4396864 
C     5.6562059   -0.6591655    0.7246197 
C     4.3530127   -0.5642777    1.1901871 
C     1.1885839   -2.0043218    0.3071986 
O     0.5699686   -2.6900725    1.0823114 
O     2.1587965   -2.4757776   -0.4695074 
H    -2.6276368    2.9001451    1.0552462 
H    -2.5927188    2.7365013   -0.5511930 
H    -2.6002805    0.6546512    1.4511689 
H    -3.2559365    0.3881441   -1.5083537 
H    -2.8853302   -0.9628103   -0.4606828 
H    -4.8551733   -0.4182293    0.9794746 
H    -5.1775595    0.9991276    0.0166156 
H    -7.3762808   -1.4419186   -1.1279163 
H    -0.8482354   -0.8648602    1.1237593 
H     1.1212609   -0.2533505   -0.9134804 
H     1.9097697   -0.0520785    2.0229020 
H     1.6460162    1.3128390    0.9377205 
H     3.0601396    1.4410781   -1.1996752 
H     5.3720135    1.2692005   -2.0386765 
H     7.0436938   -0.0759736   -0.8050790 
H     6.3838275   -1.2441114    1.2742223 
H     4.0670709   -1.0777961    2.1020643 
H     2.2726140   -3.4111979   -0.2570281 
C    -1.9325916   -3.2671714    2.4262854 
O    -2.2836383   -2.1860623    2.1920870 
O    -1.6120195   -4.3463545    2.6743028 
