36
Energy = -1424.261788041
N    -2.7275528   -1.1574303    0.6466451 
C    -2.4307073    0.1860845    0.1876557 
C    -2.6364604    1.2907519    1.2224965 
C    -4.0467842    1.3722933    1.7208084 
O    -4.3788226    1.4166297    2.8733233 
O    -4.9428899    1.3938487    0.7140644 
C    -1.0135930    0.2946901   -0.3729863 
O    -0.5009413    1.3802485   -0.6006607 
N    -0.4105883   -0.8746001   -0.6160976 
C     0.8953233   -0.9362197   -1.2111326 
C     1.9972039   -0.6070320   -0.1860028 
C     3.3397654   -0.2545663   -0.7979563 
S     4.5580778    0.2837602    0.4158519 
C     3.8906067    1.8921372    0.8616084 
C     1.0669224   -2.3182249   -1.7908244 
O     0.3770654   -3.2635001   -1.5200776 
O     2.1023914   -2.3874915   -2.6351055 
H    -3.7183571   -1.3472520    0.6090070 
H    -2.4246390   -1.2973998    1.6020663 
H    -3.0834201    0.3928938   -0.6652231 
H    -2.3628970    2.2482560    0.7719367 
H    -1.9918742    1.1355726    2.0884008 
H    -5.8133443    1.4736042    1.1231054 
H    -0.9242361   -1.7266555   -0.4342171 
H     0.9548871   -0.2015538   -2.0201156 
H     1.6207092    0.2512656    0.3708754 
H     2.1038125   -1.4331964    0.5212761 
H     3.7912892   -1.1140077   -1.2934261 
H     3.2235498    0.5288305   -1.5518915 
H     4.5994735    2.3424034    1.5557633 
H     3.7979837    2.5309610   -0.0165815 
H     2.9241254    1.8115105    1.3588729 
H     2.1640290   -3.3046158   -2.9310466 
C     0.6696665    3.8550790   -1.1182632 
O    -0.2673943    4.4068712   -0.7266260 
O     1.6288055    3.3448204   -1.5174282 
