44
Energy = -1290.125881116
N    -3.3895063   -2.5746142    0.0127819 
C    -3.7668155   -1.1711282   -0.0369984 
C    -4.1047515   -0.6963438    1.3833222 
C    -5.0434354    0.4904340    1.5585189 
O    -5.7405937    0.5578587    2.5529527 
N    -5.0454533    1.4158699    0.5825907 
C    -2.6238640   -0.3388845   -0.6114606 
O    -2.8102955    0.8043979   -1.0226416 
N    -1.4322930   -0.9353876   -0.6044380 
C    -0.2233863   -0.2821118   -1.0276449 
C     0.4005847    0.5225441    0.1368213 
C     1.6917586    1.1885757   -0.1797296 
C     3.0032882    0.6250060   -0.0391450 
C     3.4860912   -0.6044204    0.4184783 
C     4.8479093   -0.8294402    0.4166506 
C     5.7440761    0.1503846   -0.0327110 
C     5.2973306    1.3749613   -0.4893545 
C     3.9249648    1.5981293   -0.4880003 
N     3.1986523    2.6911876   -0.8788308 
C     1.8638782    2.4436653   -0.6913419 
C     0.7307285   -1.3517538   -1.5021246 
O     0.7777828   -2.4579987   -1.0316374 
O     1.5322921   -0.9260330   -2.4756938 
H    -3.4540812   -3.0068483   -0.8991137 
H    -3.9931820   -3.0881673    0.6385730 
H    -4.6305321   -0.9767171   -0.6845334 
H    -3.1866667   -0.4802714    1.9378597 
H    -4.5943479   -1.5110156    1.9190817 
H    -5.6106597    2.2342792    0.7240089 
H    -4.3577762    1.3970903   -0.1633287 
H    -1.3871347   -1.8767564   -0.2332377 
H    -0.4513864    0.4032237   -1.8438512 
H     0.5254201   -0.1625526    0.9797396 
H    -0.3512338    1.2582129    0.4271029 
H     2.8050971   -1.3736266    0.7639350 
H     5.2342296   -1.7774315    0.7700853 
H     6.8070325   -0.0561209   -0.0198323 
H     5.9930055    2.1304692   -0.8349346 
H     3.5812898    3.5478613   -1.2305966 
H     1.1218613    3.1845183   -0.9425509 
H     2.1801415   -1.6232015   -2.6413709 
C    -2.4298895    3.5415330   -1.4883359 
O    -3.5648713    3.6877278   -1.3270864 
O    -1.2890764    3.4381360   -1.6543114 
