31
Energy = -1002.946468475
N     2.2536829    1.9460784    0.0205493 
C     1.4030343    0.8349394   -0.3585909 
C     1.6824444   -0.3865893    0.5258963 
C     3.0210493   -1.0727053    0.2995221 
O     3.1172543   -2.2831446    0.3421415 
N     4.0602147   -0.2451214    0.0728217 
C    -0.0797781    1.1861713   -0.2608145 
O    -0.4789413    2.1498378    0.3689823 
N    -0.9332879    0.3543425   -0.8992975 
C    -2.3435838    0.4524677   -0.6396358 
C    -3.0409209   -0.7656626   -1.2498637 
O    -2.4119243   -1.9653862   -0.8834036 
C    -2.6117355    0.4503765    0.8545569 
O    -2.0688894   -0.3025382    1.6241729 
O    -3.5708026    1.3011657    1.2004277 
H     1.9404084    2.2964637    0.9198557 
H     2.1342435    2.7122994   -0.6296598 
H     1.6245364    0.5708149   -1.3980201 
H     1.6246642   -0.0780883    1.5743086 
H     0.9245237   -1.1562000    0.3878871 
H     3.9012239    0.7548834    0.0523505 
H     4.9697535   -0.6468405   -0.0658019 
H    -0.6041696   -0.5497212   -1.2017785 
H    -2.7569207    1.3681666   -1.0648773 
H    -4.1004446   -0.7492934   -0.9698443 
H    -2.9799502   -0.7013596   -2.3375477 
H    -2.3471799   -1.9984458    0.0775097 
H    -3.6659564    1.2584558    2.1611738 
C    -0.5304504    2.0323814    3.3037216 
O     0.5895651    1.7524130    3.2330446 
O    -1.6452100    2.3205096    3.4121412 
