39
Energy = -954.3618521560
N    -1.7267473    0.3862780   -2.4585535 
C    -1.0918813    0.5353717   -1.1597743 
C    -2.0891117    1.1630045   -0.1643421 
C    -3.3298224    0.3141812    0.0698539 
C    -1.4547791    1.6368650    1.1475290 
C    -1.1461548    0.5752128    2.1938831 
C    -0.5312553   -0.8057127   -0.6889577 
O    -1.2188016   -1.8136289   -0.7310646 
N     0.7490269   -0.8659759   -0.2441234 
C     1.7041865    0.2130002   -0.2030045 
C     2.8733328   -0.3787141    0.5999849 
C     2.8004097   -1.8625560    0.2642672 
C     1.3063639   -2.1306521    0.2233133 
C     2.1583619    0.6329487   -1.5893326 
O     1.9365354    0.0496141   -2.6141273 
O     2.8680138    1.7681597   -1.5332199 
H    -2.3204732   -0.4350365   -2.4293098 
H    -1.0222585    0.1856740   -3.1578195 
H    -0.2857876    1.2618253   -1.2817658 
H    -2.4120789    2.0654508   -0.6940129 
H    -3.0896912   -0.6580336    0.4986495 
H    -4.0123718    0.8334722    0.7472351 
H    -3.8655156    0.1419747   -0.8642174 
H    -2.1440996    2.3606792    1.5935666 
H    -0.5474167    2.2078587    0.9177221 
H    -0.4337328   -0.1697467    1.8390815 
H    -2.0487603    0.0423653    2.4958019 
H    -0.7237809    1.0360499    3.0891172 
H     1.3112926    1.1012453    0.2946280 
H     2.6797853   -0.2164372    1.6620615 
H     3.8238681    0.0925486    0.3552383 
H     3.3183949   -2.4861397    0.9916309 
H     3.2361069   -2.0526941   -0.7187379 
H     1.0224138   -2.9367520   -0.4491163 
H     0.9055425   -2.3687125    1.2147498 
H     3.1412489    1.9789095   -2.4347889 
C     0.8331089   -2.4548487   -3.5757122 
O     0.0430722   -1.8732857   -4.1871924 
O     1.6207256   -3.0620686   -2.9842877 
