34
Energy = -1365.122746444
N    -3.0433681   -0.3591633   -0.6069473 
C    -1.9055185   -0.2448299   -1.4834915 
C    -1.9818693    1.0537214   -2.2793048 
S    -3.3866431    1.1145039   -3.4083233 
C    -0.5102038   -0.3397225   -0.8562872 
O     0.4876111   -0.3311130   -1.5679010 
N    -0.4661253   -0.4259573    0.4794782 
C     0.7267326   -0.6933112    1.2432315 
C     1.3409070    0.5723157    1.8574485 
C     1.9578503    1.5029485    0.8188984 
C     3.2893839    0.9582805    0.3295841 
O     4.3010815    1.0925090    0.9912640 
N     3.2491383    0.3111899   -0.8519562 
C     0.3409389   -1.6546683    2.3446825 
O    -0.7937927   -1.8903688    2.6686671 
O     1.4055374   -2.1877857    2.9400557 
H    -3.1484457   -1.2641155   -0.1752130 
H    -3.1010966    0.3735229    0.0856535 
H    -1.9461979   -1.0692409   -2.2014124 
H    -2.0077418    1.9076100   -1.5961183 
H    -1.0927961    1.1466873   -2.8999265 
H    -4.2991789    0.7490346   -2.4940566 
H    -1.3351852   -0.5563698    0.9747771 
H     1.4616485   -1.1769882    0.5945251 
H     2.1105844    0.2844230    2.5759494 
H     0.5538837    1.0947160    2.4079211 
H     1.2642952    1.6751706   -0.0057548 
H     2.1739654    2.4614302    1.2905770 
H     4.0932624   -0.1193789   -1.1862053 
H     2.3687083    0.1003936   -1.3017661 
H     1.0878814   -2.7549442    3.6540180 
C     1.3008062   -0.6202711   -4.2474514 
O     0.2659777   -0.3320073   -4.6763454 
O     2.3488443   -0.9112323   -3.8531248 
