36
Energy = -1275.080395827
N     3.6466823   -1.9566068    0.2814829 
C     2.5824654   -1.0982311    0.7470350 
C     3.1448657    0.2484958    1.1663655 
S     3.8052750    1.2341579   -0.2132450 
C     1.4124223   -1.0388925   -0.2476725 
O     1.2248040   -1.9592904   -1.0205616 
N     0.5768141    0.0247651   -0.1645788 
C    -0.5174789    0.1781933   -1.0834223 
C    -1.9031772    0.0212941   -0.4223788 
C    -2.0342691   -1.3773158    0.1594077 
C    -2.1573564    1.1148339    0.6121316 
C    -3.5692769    1.1126607    1.1730209 
C    -0.4034971    1.5061236   -1.7930560 
O     0.3436178    2.3995635   -1.4938439 
O    -1.2656480    1.5968371   -2.8119537 
H     4.0951814   -1.4993078   -0.5064199 
H     3.2285326   -2.7949718   -0.1055053 
H     2.1547341   -1.5519722    1.6522833 
H     3.9444154    0.0858748    1.8863475 
H     2.3958464    0.8660710    1.6596387 
H     5.0853952    0.8592617   -0.0843063 
H     0.8442998    0.8346963    0.3679898 
H    -0.4073450   -0.6106910   -1.8315782 
H    -2.6357452    0.1352964   -1.2280419 
H    -1.8095615   -2.1382651   -0.5890127 
H    -1.3406940   -1.5165582    0.9916394 
H    -3.0437828   -1.5544466    0.5301724 
H    -1.4374385    1.0073723    1.4303515 
H    -1.9595891    2.0935285    0.1623442 
H    -3.7839577    0.2010669    1.7323132 
H    -4.3091440    1.1939901    0.3727530 
H    -3.7201523    1.9544811    1.8506324 
H    -1.1461671    2.4704193   -3.2050450 
C     1.5181241    3.8110642    0.6659969 
O     1.1463850    2.9648340    1.3684346 
O     1.8864590    4.6761134   -0.0004846 
