32
Energy = -837.7284089899
N     3.0506398    1.6527528   -0.4626036 
C     3.4412524    0.2577428   -0.3391434 
C     2.2676318   -0.6917057   -0.1789946 
O     2.4339123   -1.8786720    0.0237740 
N     1.0519547   -0.1186331   -0.2998171 
C    -0.1351935   -0.9202356   -0.3927680 
C    -1.3817992   -0.0261271   -0.3023241 
C    -2.6563262   -0.7872123   -0.6336607 
C    -1.4543586    0.6159408    1.0832653 
C    -2.4260506    1.7803781    1.1692221 
C    -0.1144957   -1.7060428   -1.6952717 
O     0.2862412   -1.2800635   -2.7450229 
O    -0.6225862   -2.9336749   -1.5537015 
H     3.7223885    2.1706739   -1.0093666 
H     2.9872242    2.1009237    0.4406930 
H     3.9381800   -0.0560721   -1.2592696 
H     4.1363683    0.0453591    0.4795763 
H     1.0406628    0.8429102   -0.6063859 
H    -0.1381706   -1.6452833    0.4244122 
H    -1.2525129    0.7671640   -1.0492810 
H    -2.6613909   -1.1490869   -1.6623480 
H    -2.7794636   -1.6496574    0.0255562 
H    -3.5271125   -0.1431086   -0.5135162 
H    -1.7289766   -0.1569165    1.8097778 
H    -0.4582317    0.9613913    1.3702989 
H    -2.4160770    2.2225111    2.1668641 
H    -3.4529693    1.4771589    0.9590930 
H    -2.1596236    2.5643514    0.4560348 
H    -0.5799863   -3.3572878   -2.4202125 
C     1.4752785    1.3326948   -3.2774954 
O     0.4894562    1.8454796   -2.9525904 
O     2.4729371    0.8569259   -3.6157939 
