44
Energy = -994.8575058848
N     1.6437617    0.3331209   -1.9502905 
C     1.6404389   -0.1464238   -0.5748365 
C     1.7475850    1.0179297    0.4151011 
C     3.1642651    1.4415125    0.8151501 
C     3.8537442    0.3764377    1.6566074 
C     4.0406298    1.8559262   -0.3587114 
C     0.3615025   -0.9200085   -0.2718706 
O     0.2747993   -1.6397692    0.7120462 
N    -0.6413016   -0.7027543   -1.1352366 
C    -1.8869310   -1.4081632   -1.0773885 
C    -3.0984156   -0.5068257   -0.7909921 
C    -3.2786383   -0.0436456    0.6570127 
C    -3.4574320   -1.2166823    1.6109886 
C    -2.1870835    0.8945187    1.1541866 
C    -2.1023157   -2.1275458   -2.3915928 
O    -1.5167521   -1.8933565   -3.4135037 
O    -3.0609016   -3.0600001   -2.2974442 
H     1.9434771   -0.3850518   -2.5958010 
H     2.2621119    1.1220063   -2.0600129 
H     2.4454366   -0.8614851   -0.3666034 
H     1.2086228    1.8677343   -0.0175589 
H     1.2201069    0.7407616    1.3292574 
H     3.0332732    2.3239134    1.4520327 
H     4.0422223   -0.5320812    1.0789443 
H     3.2438082    0.0993532    2.5179895 
H     4.8186830    0.7355177    2.0208385 
H     3.5726910    2.6421722   -0.9581061 
H     4.2586488    1.0071814   -1.0128968 
H     4.9992024    2.2420204   -0.0060503 
H    -0.4056652   -0.1504977   -1.9496555 
H    -1.7946730   -2.1625085   -0.2929242 
H    -3.0347006    0.3635450   -1.4521162 
H    -3.9968435   -1.0582118   -1.0791464 
H    -4.2173465    0.5233775    0.6506621 
H    -4.2457389   -1.8937139    1.2736624 
H    -2.5347937   -1.7933256    1.7102781 
H    -3.7252335   -0.8620849    2.6084018 
H    -2.4808897    1.3427035    2.1058916 
H    -1.9949703    1.7039305    0.4467084 
H    -1.2517840    0.3611548    1.3230240 
H    -3.1600010   -3.4497470   -3.1747097 
C     0.1149237   -1.6111287    3.4927637 
O     0.6015244   -0.5614780    3.5486524 
O    -0.3784237   -2.6558404    3.4894884 
