27
Energy = -888.4812816101
N    -1.4704342   -1.4935103   -0.6738335 
C    -0.8755864   -0.2996719   -0.1064023 
C    -1.2250144   -0.0295400    1.3557125 
C    -2.7134450    0.1459149    1.5660198 
O    -3.4986097    0.3090508    0.6529860 
N    -3.1104062    0.1256878    2.8609275 
C     0.6305839   -0.4734930   -0.2097480 
O     1.2119041   -1.3541834    0.4006842 
N     1.2763957    0.3946383   -1.0118619 
C     2.6824831    0.2658570   -1.2380724 
C     3.1344645    1.2522708   -2.2721096 
O     2.4218592    2.0351201   -2.8431719 
O     4.4475865    1.1622710   -2.4935495 
H    -2.4771358   -1.4315329   -0.5993811 
H    -1.1499051   -2.3090813   -0.1668930 
H    -1.2010008    0.5524614   -0.7059418 
H    -0.7285464    0.8834410    1.7054250 
H    -0.8444853   -0.8486639    1.9724659 
H    -4.0852148    0.2495553    3.0678547 
H    -2.4664362   -0.0376234    3.6110701 
H     0.7682752    1.0719467   -1.5582982 
H     3.2597840    0.4286919   -0.3223078 
H     2.9443394   -0.7428985   -1.5740888 
H     4.6693348    1.8160268   -3.1683383 
C    -0.1897803    3.1955398   -3.3717182 
O    -0.5919896    2.5666837   -2.4848457 
O     0.1851386    3.8333626   -4.2570598 
