39
Energy = -1041.762635842
N    -5.4520079   -0.5081418   -0.1742194 
C    -4.1151648   -0.4828617   -0.7323327 
C    -3.9869974    0.6443892   -1.7442867 
C    -3.1389066   -0.4157600    0.4402165 
O    -3.4057236   -0.9367775    1.5069373 
N    -1.9577659    0.1979792    0.1987963 
C    -0.9127605    0.2765466    1.1874960 
C     0.3708441   -0.3776748    0.6864821 
C     1.5454019   -0.2844217    1.6470047 
C     2.8679276   -0.5751656    0.9591358 
N     3.1637458    0.4561785   -0.0091848 
C     4.0907886    0.2243838   -0.9993414 
N     4.5606551   -0.9465506   -1.1919058 
N     4.4276791    1.3824114   -1.6860696 
C    -0.6529300    1.7405189    1.4913964 
O    -0.3482493    2.5581843    0.6607381 
O    -0.7844614    2.0383558    2.7845926 
H    -6.0961222   -0.9663728   -0.8026440 
H    -5.4294368   -1.0247318    0.6970583 
H    -3.8460559   -1.4276259   -1.2373494 
H    -4.1063260    1.6138075   -1.2585427 
H    -3.0379355    0.6217727   -2.2847850 
H    -4.7770249    0.5492693   -2.4906881 
H    -1.8015276    0.6570344   -0.6821446 
H    -1.2884365   -0.2164682    2.0831353 
H     0.1453752   -1.4234955    0.4661361 
H     0.6498785    0.0930936   -0.2588242 
H     1.5963513    0.7154121    2.0950963 
H     1.4113120   -0.9777227    2.4808592 
H     3.6700336   -0.6698792    1.7006902 
H     2.8337456   -1.5220152    0.4195557 
H     3.1711655    1.3953683    0.3554565 
H     5.1607291   -0.9709330   -2.0083437 
H     4.9389318    1.2270921   -2.5373817 
H     3.6866212    2.0579060   -1.7918785 
H    -0.6031340    2.9827240    2.8816566 
C     0.5510494    2.3459102   -2.0263059 
O    -0.3878827    1.7262085   -2.2960090 
O     1.5026045    2.9624768   -1.8002230 
