38
Energy = -1140.396923912
N    -4.1664380    1.2439720    1.7927370 
C    -3.6804755    0.2770119    0.8291734 
C    -4.4188710    0.5151960   -0.4889029 
O    -4.2961560    1.8530443   -0.8732990 
C    -2.1689509    0.4568525    0.7044189 
O    -1.5370336    1.1213993    1.5110061 
N    -1.5710057   -0.1869866   -0.3089048 
C    -0.1552762   -0.0716844   -0.5330190 
C     0.6407938   -1.0060226    0.4060498 
C     2.1179671   -0.7610202    0.4148966 
C     3.0062201   -1.6504569   -0.1794511 
C     4.3699368   -1.4152445   -0.1872611 
C     4.8713509   -0.2653200    0.4075774 
O     6.2136349   -0.0705383    0.3760676 
C     3.9990199    0.6331816    1.0113375 
C     2.6376648    0.3821942    1.0134140 
C     0.0958701   -0.4159492   -1.9798454 
O    -0.6493316   -1.0859234   -2.6476786 
O     1.2457950    0.0780538   -2.4306182 
H    -3.4032019    1.5385584    2.3912797 
H    -4.9123101    0.8711345    2.3597323 
H    -3.8395416   -0.7658833    1.1408977 
H    -4.0315089   -0.1059372   -1.3001655 
H    -5.4714539    0.2313092   -0.3446153 
H    -4.4114254    2.3495566   -0.0504669 
H    -2.0966151   -0.6906420   -1.0042615 
H     0.1574257    0.9563405   -0.3417813 
H     0.4206847   -2.0411378    0.1342803 
H     0.2259312   -0.8323710    1.4007010 
H     2.6242276   -2.5519458   -0.6465286 
H     5.0579749   -2.1124993   -0.6478542 
H     6.4236909    0.7523651    0.8211101 
H     4.3859981    1.5292666    1.4861761 
H     1.9697857    1.0886311    1.4947233 
H     1.3554384   -0.2297831   -3.3394324 
C    -0.5316977    2.7947018    3.4649227 
O    -1.5672924    2.8283333    3.9792034 
O     0.5205131    2.7868899    2.9845853 
