45
Energy = -1107.881708412
N    -1.7002894   -1.2287088    1.2719091 
C    -1.2780542   -0.8356162   -0.0482267 
C    -1.6465267    0.6310267   -0.3108400 
C    -3.1260578    0.8625295   -0.3830797 
C    -3.8438475    1.3275589    0.7123975 
C    -5.2150679    1.5203201    0.6344751 
C    -5.8892457    1.2476097   -0.5459330 
C    -5.1827609    0.7831177   -1.6461175 
C    -3.8124034    0.5937876   -1.5643369 
C     0.1953991   -1.0248069   -0.4135379 
O     0.5729908   -0.9289441   -1.5702196 
N     1.0357441   -1.2702511    0.6100242 
C     2.4272774   -1.5687528    0.4101406 
C     3.3472502   -0.3948309    0.7714484 
C     3.1434045    0.8493366   -0.0870462 
C     3.9057250    2.0173306    0.5224039 
C     3.5620162    0.6224565   -1.5318087 
C     2.7775568   -2.7609251    1.2667888 
O     2.1034443   -3.1699844    2.1752266 
O     3.9524018   -3.2988955    0.9273468 
H    -1.3411655   -0.6354930    2.0055126 
H    -1.5290925   -2.1987520    1.4887640 
H    -1.8203932   -1.4455864   -0.7770334 
H    -1.1781116    0.9257679   -1.2504137 
H    -1.2055261    1.2456036    0.4817129 
H    -3.3229416    1.5422935    1.6387425 
H    -5.7583546    1.8845476    1.4982198 
H    -6.9595859    1.4009460   -0.6105716 
H    -5.6999240    0.5734981   -2.5748140 
H    -3.2622517    0.2407849   -2.4296646 
H     0.6451816   -1.5003788    1.5095772 
H     2.5660166   -1.8320934   -0.6407044 
H     3.1774295   -0.1457335    1.8245839 
H     4.3855529   -0.7283325    0.6848619 
H     2.0762094    1.0964871   -0.0745423 
H     4.9801882    1.8129983    0.5403822 
H     3.7531492    2.9283651   -0.0592974 
H     3.5866703    2.2144297    1.5484940 
H     2.9652715   -0.1528245   -2.0122622 
H     3.4321596    1.5362437   -2.1150772 
H     4.6181549    0.3420316   -1.5877837 
H     4.1202825   -4.0253689    1.5405608 
C     0.0008833   -0.2729129   -4.1925424 
O    -1.1158674   -0.0591885   -3.9725335 
O     1.1064312   -0.4713955   -4.4637668 
