30
Energy = -1196.512079338
N    -4.4744484   -1.1762786    0.1538752 
C    -3.2682023   -0.8584847   -0.5661789 
C    -2.1982438   -0.1558684    0.2612383 
O    -2.2395244   -0.1139310    1.4767114 
N    -1.1812595    0.3841431   -0.4502732 
C    -0.1094933    1.0809149    0.2040852 
C     0.9622042    0.1398396    0.7762108 
C     1.6573988   -0.6825539   -0.2916513 
S     2.8480157   -1.8704181    0.3502424 
C     4.1360241   -0.7609765    0.9317658 
C     0.4878985    2.0666418   -0.7665516 
O     0.1982352    2.1587498   -1.9313888 
O     1.4116663    2.8389247   -0.1883559 
H    -4.2232646   -1.6007529    1.0388211 
H    -4.9608380   -0.3230608    0.3977223 
H    -2.8198137   -1.7810710   -0.9517723 
H    -3.5066898   -0.2560069   -1.4465261 
H    -1.2341266    0.4356307   -1.4554130 
H    -0.5226186    1.6477678    1.0445040 
H     1.6842437    0.7405913    1.3310401 
H     0.4646391   -0.5177887    1.4897146 
H     0.9276674   -1.2819913   -0.8398939 
H     2.1629381   -0.0451585   -1.0243932 
H     4.4957712   -0.1236072    0.1225432 
H     4.9589856   -1.3884975    1.2723141 
H     3.8023533   -0.1459468    1.7671780 
H     1.7525973    3.4319444   -0.8696263 
C    -1.1874695    1.2349169   -4.2919730 
O    -1.6835653    0.4176036   -3.6353264 
O    -0.7090857    2.0363982   -4.9693370 
