43
Energy = -1010.887833324
N     0.7283588   -2.2984742    0.2772750 
C     0.6849885   -1.1342392    1.1318733 
C     1.5339638   -0.0107765    0.5398132 
C     3.0113396   -0.3492064    0.4515583 
C     3.8302742    0.7558722   -0.1930054 
C     5.3158946    0.4303444   -0.2673807 
N     6.1636564    1.4428576   -0.8736050 
C    -0.6882252   -0.5572340    1.4797976 
O    -0.8234389    0.2321492    2.3965046 
N    -1.7140357   -0.9485380    0.6867190 
C    -3.0658665   -0.5566545    0.9620435 
C    -3.5955121    0.5511217    0.0229250 
C    -2.7520278    1.8067940    0.1670797 
C    -3.6511831    0.0883209   -1.4250116 
C    -3.9535394   -1.7735846    0.8899624 
O    -3.6342099   -2.8378257    0.4252744 
O    -5.1744249   -1.5348176    1.3762530 
H     0.4469453   -2.1029861   -0.6731834 
H     0.1887002   -3.0750431    0.6300234 
H     1.1169081   -1.4059001    2.1005200 
H     1.3877471    0.8821290    1.1515350 
H     1.1469631    0.2262238   -0.4601457 
H     3.3912467   -0.5429583    1.4612967 
H     3.1388709   -1.2813820   -0.1051040 
H     3.6958968    1.6908984    0.3642457 
H     3.4560010    0.9478313   -1.2062107 
H     5.4537189   -0.5027838   -0.8229777 
H     5.6933936    0.2346087    0.7414158 
H     5.8618918    1.6329972   -1.8208664 
H     6.0849861    2.3158551   -0.3674331 
H    -1.5660758   -1.7184519    0.0551131 
H    -3.0882375   -0.1680275    1.9840127 
H    -4.6123738    0.7705705    0.3609198 
H    -3.1638589    2.6096666   -0.4471298 
H    -2.7088854    2.1453948    1.2024566 
H    -1.7269843    1.6249414   -0.1621022 
H    -4.3047070   -0.7772952   -1.5595388 
H    -4.0302617    0.8869634   -2.0643045 
H    -2.6532224   -0.1743635   -1.7849820 
H    -5.6883445   -2.3444857    1.2641391 
C    -2.7281562   -3.3577324   -2.2741008 
O    -1.6587728   -3.0114422   -1.9906286 
O    -3.7843881   -3.7022739   -2.5856789 
