31
Energy = -1234.589654234
N    -2.4787362   -0.5773285   -0.9465671 
C    -1.4500877    0.2820563   -0.3871017 
C    -2.0256723    0.8382937    0.9284728 
C    -3.5266185    0.7066259    0.7107686 
C    -3.6233967   -0.6115481   -0.0391202 
C    -0.1528516   -0.4721070   -0.1585281 
O    -0.0709970   -1.6862138   -0.2286414 
N     0.9098084    0.3069957    0.1378369 
C     2.1911335   -0.2552616    0.4420472 
C     2.9468360   -0.7236490   -0.8039131 
S     3.3382355    0.6052242   -1.9650864 
C     2.9871927    0.7633536    1.2228501 
O     2.6011946    1.8642522    1.5099475 
O     4.1880406    0.2942239    1.5659504 
H    -2.0893454   -1.4992467   -1.0960328 
H    -1.2295705    1.1138823   -1.0698275 
H    -1.7155765    0.2072720    1.7661734 
H    -1.6952787    1.8564101    1.1349266 
H    -4.0965328    0.7111310    1.6400772 
H    -3.8910386    1.5228916    0.0821395 
H    -3.5699866   -1.4472454    0.6724197 
H    -4.5576047   -0.7084170   -0.5969641 
H     0.8074140    1.3058184    0.2241631 
H     2.0526837   -1.1357535    1.0807041 
H     3.9035522   -1.1570484   -0.5149280 
H     2.3571363   -1.4931441   -1.2979285 
H     2.0764467    0.8398303   -2.3556466 
H     4.6473401    1.0013909    2.0360367 
C     2.1657812    3.8401379   -0.5845643 
O     1.0974447    3.4143632   -0.7338659 
O     3.2205283    4.2886250   -0.4525352 
