39
Energy = -991.4718012094
N     0.9402876   -0.8976193    1.7618671 
C     0.9492581    0.1197145    0.7366972 
C     1.8920460   -0.2773834   -0.3979258 
C     3.3428194   -0.5035642    0.0152267 
C     4.1435480   -0.9830084   -1.1868969 
C     3.9653443    0.7480059    0.6146388 
C    -0.3861848    0.5018915    0.1063317 
O    -0.4981722    1.5002938   -0.5849019 
N    -1.4238440   -0.3328797    0.3209374 
C    -2.7078620   -0.1072767   -0.2918943 
C    -3.5544255    0.9627259    0.4184546 
O    -4.8320029    1.0158516   -0.1667417 
C    -3.7382253    0.6420351    1.8826469 
C    -2.5457839    0.2198385   -1.7703896 
O    -3.1798513    1.0599459   -2.3575647 
O    -1.6681960   -0.5792291   -2.3726627 
H     0.7994029   -1.8313353    1.4041007 
H     0.3100367   -0.7103687    2.5265435 
H     1.3144035    1.0500868    1.1813699 
H     1.5009338   -1.1905884   -0.8646836 
H     1.8432523    0.5031790   -1.1614702 
H     3.3609138   -1.2877542    0.7785980 
H     5.1793417   -1.1925487   -0.9122510 
H     3.7178938   -1.8945013   -1.6130842 
H     4.1553890   -0.2230813   -1.9735396 
H     3.4711810    1.0463889    1.5405942 
H     3.9063627    1.5855667   -0.0866713 
H     5.0192280    0.5819448    0.8467041 
H    -1.2732431   -1.1526627    0.8790964 
H    -3.2707932   -1.0458869   -0.2492304 
H    -3.0338945    1.9216160    0.3096504 
H    -4.6988555    1.3046152   -1.0770199 
H    -4.2388688   -0.3221397    2.0023676 
H    -4.3648425    1.4054657    2.3427590 
H    -2.7837643    0.6166591    2.4081699 
H    -1.5478830   -0.2433930   -3.2709075 
C    -0.8088645    2.8017245   -3.1370281 
O    -0.4350419    1.8536326   -3.6916225 
O    -1.1696877    3.7685553   -2.6224422 
