42
Energy = -1084.895567473
N    -2.3752324    0.1029085   -2.3086625 
C    -2.2222358    0.7012968   -0.9910980 
C    -2.7220896   -0.2777225    0.0897272 
C    -1.8591184   -1.5292590    0.1764878 
C    -2.8927324    0.4104017    1.4406214 
C    -3.5889826   -0.4524032    2.4792362 
C    -0.7693171    1.0857120   -0.7434519 
O    -0.4530809    1.8698330    0.1410322 
N     0.1232850    0.4942498   -1.5497374 
C     1.5317520    0.7254556   -1.4080917 
C     2.1197995   -0.0790779   -0.2354552 
C     3.4733976    0.4188388    0.2536525 
C     3.9255307   -0.4197793    1.4294032 
O     4.4852361   -1.4871686    1.2826676 
N     3.6321478    0.0925565    2.6486508 
C     2.1896994    0.3619336   -2.7167396 
O     1.6790462   -0.3075043   -3.5734724 
O     3.4307031    0.8510613   -2.8140821 
H    -3.2599779   -0.3804982   -2.3794710 
H    -2.3531332    0.8043607   -3.0363394 
H    -2.7876052    1.6338353   -0.8693021 
H    -3.7248806   -0.5790879   -0.2463696 
H    -2.3383822   -2.2924080    0.7895399 
H    -0.8895799   -1.3032565    0.6275211 
H    -1.6792282   -1.9575963   -0.8100777 
H    -1.9140711    0.7268124    1.8079324 
H    -3.4636300    1.3322659    1.2946874 
H    -2.9971840   -1.3296651    2.7457883 
H    -3.7638648    0.1125653    3.3962733 
H    -4.5591890   -0.8043268    2.1177146 
H    -0.2162051   -0.1355678   -2.2639653 
H     1.6951904    1.7882968   -1.2083108 
H     1.3939475    0.0117000    0.5743703 
H     2.1796996   -1.1361807   -0.5057779 
H     3.3960373    1.4736618    0.5282839 
H     4.2297272    0.3201219   -0.5226702 
H     3.0892600    0.9305016    2.7511077 
H     3.8318592   -0.4669369    3.4584543 
H     3.7948161    0.5323807   -3.6498150 
C     0.4054098    2.9008591    2.5666336 
O    -0.6369225    3.3543427    2.7600726 
O     1.4698156    2.4633789    2.4222613 
