48
Energy = -1159.611339775
N     1.2888857    1.5483457    0.1960771 
C     1.0588117    0.1460095   -0.1135900 
C     1.3959692   -0.8287534    1.0144003 
C     2.8502593   -0.7920629    1.4541669 
C     3.8143202   -1.1708997    0.3455301 
N     5.1720477   -1.2352323    0.8327588 
C     6.2222507   -0.9868147   -0.0180488 
N     6.0271695   -0.5417939   -1.1981983 
N     7.4497028   -1.2971178    0.5592981 
C    -0.3745361   -0.1043480   -0.5784288 
O    -0.7905240   -1.2366973   -0.7795043 
N    -1.1158501    0.9957116   -0.7616083 
C    -2.4707590    0.9168674   -1.2349338 
C    -3.4321645    0.5518281   -0.0906661 
C    -4.8733457    0.2216537   -0.4659707 
C    -5.6414509   -0.1322436    0.8004375 
C    -4.9577818   -0.9151719   -1.4752945 
C    -2.8235424    2.2485433   -1.8454321 
O    -2.2778890    3.2875254   -1.5863526 
O    -3.8462426    2.1592199   -2.7050817 
H     1.1347458    1.7342009    1.1786771 
H     2.2357191    1.8234546   -0.0188413 
H     1.6684350   -0.1031659   -0.9879161 
H     1.1246929   -1.8336301    0.6862078 
H     0.7501355   -0.5972382    1.8696434 
H     3.1193641    0.1990783    1.8326925 
H     2.9742342   -1.4821320    2.2956011 
H     3.8159182   -0.4338413   -0.4569722 
H     3.5069428   -2.1213507   -0.1109673 
H     5.3514178   -1.9510558    1.5175847 
H     6.9032850   -0.3217974   -1.6573870 
H     8.2419168   -0.9505852    0.0457352 
H     7.5179756   -1.0923920    1.5439134 
H    -0.6745751    1.8945165   -0.6213727 
H    -2.5278163    0.1426413   -2.0023310 
H    -2.9904913   -0.3251195    0.3895107 
H    -3.4122505    1.3656715    0.6412431 
H    -5.3383838    1.1084352   -0.9085826 
H    -5.2161938   -1.0235050    1.2699434 
H    -6.6898881   -0.3405336    0.5776401 
H    -5.6069813    0.6799693    1.5302637 
H    -4.4284088   -1.7971007   -1.1061955 
H    -4.5291426   -0.6404511   -2.4400280 
H    -5.9987232   -1.1954827   -1.6495112 
H    -4.0298449    3.0552289   -3.0144227 
C    -1.6291285   -3.4752132    0.6570969 
O    -0.5834753   -3.9656534    0.6018182 
O    -2.6917689   -3.0254558    0.7470328 
