38
Energy = -1065.472493004
N    -1.7669281    2.3150171    1.5122706 
C    -1.1183438    1.0254398    1.4279091 
C    -2.1019511   -0.0991519    1.0597441 
C    -2.4301693   -0.3056694   -0.4192309 
C    -3.0482513    0.9141771   -1.0897676 
C    -3.3496353   -1.5113107   -0.5586780 
C     0.0637509    1.0041742    0.4608855 
O     0.2012745    1.8310041   -0.4252946 
N     0.9399885   -0.0086505    0.6386447 
C     1.9732902   -0.2910324   -0.3192414 
C     3.0819974    0.7627060   -0.3272377 
C     3.7905388    0.8353005   -1.6488103 
O     3.2981880    0.5758524   -2.7129333 
O     5.0465799    1.2813540   -1.5173843 
C     2.5029942   -1.6722943   -0.0164415 
O     2.0423870   -2.4100544    0.8136071 
O     3.5516201   -1.9847088   -0.7780064 
H    -1.9709757    2.6546429    0.5813119 
H    -1.1296370    2.9911579    1.9132497 
H    -0.7338274    0.7941569    2.4266980 
H    -3.0222329    0.1012411    1.6161738 
H    -1.7046057   -1.0441070    1.4441219 
H    -1.4980628   -0.5361562   -0.9487515 
H    -3.3781551    0.6633420   -2.1000084 
H    -2.3312810    1.7307478   -1.1819393 
H    -3.9176848    1.2714481   -0.5314994 
H    -3.5576938   -1.7251411   -1.6087868 
H    -2.9085218   -2.4060347   -0.1133686 
H    -4.3059921   -1.3277360   -0.0604498 
H     0.7530317   -0.7375064    1.3097317 
H     1.5538212   -0.3231258   -1.3316936 
H     3.7959550    0.6260165    0.4843025 
H     2.6011273    1.7352709   -0.1939954 
H     5.4094802    1.3572267   -2.4089753 
H     3.8274290   -2.8779865   -0.5379195 
C     0.4524725    1.5414179   -3.2839563 
O     0.0183134    0.4703056   -3.2027616 
O     0.8697318    2.6120718   -3.3991800 
