42
Energy = -1084.898597916
N     1.6839420    0.5174211    1.3742203 
C     1.7566886    0.7019657   -0.0624911 
C     2.4986035   -0.3883179   -0.8358349 
C     3.9113228   -0.6478778   -0.3107274 
C     4.7049508    0.6327861   -0.1962028 
O     4.7128390    1.2994214    0.8227335 
N     5.3720973    1.0121883   -1.3103224 
C     0.3796889    0.9088330   -0.6856022 
O     0.2187107    0.9159779   -1.8983731 
N    -0.6118055    1.0965893    0.1941324 
C    -1.9584256    1.3687285   -0.2210745 
C    -2.6665936    0.1548362   -0.8459900 
C    -2.5852033   -1.1533245   -0.0674830 
C    -3.1392059   -2.2805250   -0.9278640 
C    -3.2991280   -1.1018403    1.2759715 
C    -2.6915087    1.9774105    0.9492203 
O    -2.2230655    2.1656020    2.0398202 
O    -3.9447213    2.3203936    0.6270897 
H     1.5112471   -0.4515422    1.6109218 
H     2.5651604    0.7867983    1.7938527 
H     2.2773142    1.6511376   -0.2284104 
H     2.5214732   -0.1075551   -1.8892995 
H     1.9291464   -1.3222880   -0.7762355 
H     4.4158125   -1.3647287   -0.9625699 
H     3.8729719   -1.0780397    0.6900055 
H     5.3046131    0.4971568   -2.1676423 
H     5.8343766    1.9041310   -1.3129291 
H    -0.3590353    1.1706975    1.1714199 
H    -1.9400981    2.1431118   -0.9978783 
H    -2.2070342    0.0073396   -1.8240332 
H    -3.7123756    0.4230489   -1.0177436 
H    -1.5256662   -1.3626599    0.1180100 
H    -4.1986329   -2.1161837   -1.1453061 
H    -2.6098007   -2.3490629   -1.8800048 
H    -3.0523580   -3.2424764   -0.4181172 
H    -4.3506963   -0.8302892    1.1451241 
H    -2.8471022   -0.3846409    1.9624501 
H    -3.2694736   -2.0783054    1.7642601 
H    -4.3380136    2.7093025    1.4177398 
C     0.3329537   -0.8848750   -4.0307938 
O     1.4279218   -0.6117519   -4.2863959 
O    -0.7588077   -1.1990731   -3.8134717 
