45
Energy = -1107.884620116
N     1.3403320   -0.4825282   -1.7851272 
C     1.3212538   -1.1229265   -0.4805224 
C     1.7775992   -0.1274706    0.5948465 
C     3.1737914    0.3639408    0.3575909 
C     3.4033216    1.6193699   -0.1980879 
C     4.6945355    2.0566746   -0.4606311 
C     5.7764359    1.2413360   -0.1689959 
C     5.5601739   -0.0115083    0.3892659 
C     4.2704075   -0.4448170    0.6486185 
C    -0.0776753   -1.5920919   -0.0969644 
O    -0.2546227   -2.4385209    0.7616580 
N    -1.0628116   -0.9517074   -0.7453634 
C    -2.4556524   -1.1655556   -0.4825114 
C    -2.8907268   -0.5184801    0.8584264 
C    -4.2611934   -0.9845512    1.3206989 
C    -2.7163228    1.0010023    0.9026592 
C    -3.7780346    1.8372696    0.2038515 
C    -3.2054860   -0.6824054   -1.7002287 
O    -2.7308085    0.0020479   -2.5700101 
O    -4.4726879   -1.1046974   -1.7277062 
H     1.2676725   -1.1654117   -2.5276612 
H     2.2167840    0.0080319   -1.9149677 
H     1.9611036   -2.0113589   -0.4180762 
H     1.0830877    0.7165576    0.5994793 
H     1.7025558   -0.6294371    1.5609348 
H     2.5578417    2.2621729   -0.4191170 
H     4.8536955    3.0382972   -0.8904183 
H     6.7849549    1.5810027   -0.3701871 
H     6.4014357   -0.6514313    0.6269221 
H     4.1074712   -1.4228586    1.0886391 
H    -0.7960761   -0.2880498   -1.4559276 
H    -2.6395305   -2.2401695   -0.3841384 
H    -2.1590197   -0.9380492    1.5546450 
H    -5.0631499   -0.6524952    0.6627128 
H    -4.3040473   -2.0743446    1.3710358 
H    -4.4645529   -0.5971746    2.3212620 
H    -1.7321968    1.2545254    0.4990956 
H    -2.6875196    1.2879129    1.9582900 
H    -3.8024313    1.6665921   -0.8727406 
H    -3.5707396    2.8989281    0.3482118 
H    -4.7753535    1.6420632    0.6015869 
H    -4.8724351   -0.7373488   -2.5262102 
C    -0.2179886    1.9628279   -2.8733990 
O     0.0178516    1.6162062   -3.9502893 
O    -0.4520138    2.3399389   -1.8037019 
