47
Energy = -1598.149094887
N     3.5413457    1.7824360   -1.0003783 
C     2.8486801    0.5974909   -1.4567089 
C     3.4950520   -0.6684037   -0.8890544 
C     3.3557747   -0.7943217    0.6179050 
S     4.0610310   -2.3045396    1.3040343 
C     5.8133109   -1.9811021    1.0734323 
C     1.3391703    0.5231782   -1.2253773 
O     0.6744549   -0.3931047   -1.6885754 
N     0.7879226    1.4992967   -0.4854920 
C    -0.6242947    1.5361446   -0.2242543 
C    -1.0224421    0.5535615    0.9066885 
C    -2.4639073    0.2026204    0.9218262 
C    -3.1457727   -0.5591652   -0.0848974 
C    -2.7308740   -1.1826713   -1.2657417 
C    -3.6688331   -1.8589770   -2.0192172 
C    -5.0104519   -1.9278935   -1.6182864 
C    -5.4456679   -1.3259225   -0.4533152 
C    -4.5002554   -0.6438671    0.3048182 
N    -4.6241270    0.0344761    1.4899712 
C    -3.4009180    0.5366016    1.8561126 
C    -0.9750133    2.9545422    0.1402746 
O    -0.1697362    3.7765352    0.4989964 
O    -2.2804641    3.2007801    0.0516000 
H     3.2108018    2.6293480   -1.4385488 
H     3.5257074    1.8968639    0.0024060 
H     2.9596152    0.5451714   -2.5437034 
H     3.0333515   -1.5344817   -1.3623713 
H     4.5486139   -0.6515356   -1.1720625 
H     2.3011799   -0.8293545    0.9032756 
H     3.8057917    0.0534834    1.1428679 
H     6.0896908   -1.9509826    0.0198841 
H     6.3484051   -2.8027589    1.5485007 
H     6.1047737   -1.0482917    1.5586835 
H     1.3410174    2.2702750   -0.1489679 
H    -1.1660361    1.2470946   -1.1271739 
H    -0.4301953   -0.3457140    0.7216449 
H    -0.7011367    0.9621903    1.8680430 
H    -1.6938150   -1.1423781   -1.5793711 
H    -3.3610177   -2.3487604   -2.9346662 
H    -5.7208148   -2.4675755   -2.2326420 
H    -6.4827940   -1.3868935   -0.1451812 
H    -5.4672861    0.1213855    2.0238572 
H    -3.2885852    1.1038063    2.7669256 
H    -2.4175767    4.1122012    0.3399356 
C     0.8279297   -1.9110888   -3.9748032 
O     1.9038814   -1.5476181   -4.2019802 
O    -0.2448856   -2.3022468   -3.7958358 
