42
Energy = -1084.893091869
N     1.9561929    0.2876788    1.4643581 
C     2.0893213    0.2239361    0.0208852 
C     2.9137101   -0.9436932   -0.5190675 
C     4.3139300   -1.0303965    0.0910125 
C     5.0440307    0.2897927    0.0071351 
O     4.9491936    1.1370620    0.8767529 
N     5.7756107    0.4884194   -1.1131785 
C     0.7346353    0.2525376   -0.6822225 
O     0.6292046   -0.0107943   -1.8715819 
N    -0.2906232    0.6141007    0.1002984 
C    -1.6331963    0.7406249   -0.4007444 
C    -2.3763836   -0.6195932   -0.3935637 
C    -2.3787769   -1.2784986    0.9761682 
C    -3.7685799   -0.5524161   -1.0339061 
C    -4.9248293   -0.2010802   -0.1085422 
C    -2.3205441    1.8044429    0.4188116 
O    -2.1581690    1.9709052    1.5980406 
O    -3.1458518    2.5613709   -0.3162060 
H     2.8016869    0.6769484    1.8629516 
H     1.8240066   -0.6346001    1.8603285 
H     2.5754289    1.1560975   -0.2865594 
H     2.9637213   -0.8529697   -1.6050035 
H     2.3867393   -1.8813974   -0.3145044 
H     4.8782486   -1.8237801   -0.4044130 
H     4.2511084   -1.2807403    1.1502023 
H     6.2119508    1.3826973   -1.2511111 
H     5.8128356   -0.1906437   -1.8492045 
H    -0.0784190    0.8277515    1.0660430 
H    -1.5820824    1.0723001   -1.4385024 
H    -1.7539927   -1.2262726   -1.0578427 
H    -1.3619987   -1.4207271    1.3436464 
H    -2.8516898   -2.2610755    0.9194237 
H    -2.9187301   -0.6875386    1.7172877 
H    -3.9731979   -1.5321905   -1.4750541 
H    -3.7377788    0.1474935   -1.8730689 
H    -5.8522879   -0.1264410   -0.6788968 
H    -5.0724151   -0.9646379    0.6567138 
H    -4.7833073    0.7514256    0.4019551 
H    -3.5587222    3.1921840    0.2873742 
C    -0.6431471   -0.4547020   -4.2928503 
O     0.3610233   -0.7915952   -4.7553325 
O    -1.6748562   -0.1284930   -3.8789640 
