31
Energy = -1234.582859435
N     1.5908365   -0.6948570    1.8215833 
C     1.9031556    0.2291969    0.7361820 
C     2.6251981   -0.5266595   -0.3711947 
S     2.7718955    0.3855143   -1.9238002 
C     0.6362808    0.9543463    0.2879787 
O     0.5542373    2.1671905    0.4304776 
N    -0.3961652    0.2533938   -0.2128301 
C    -1.5984155    0.9721111   -0.5843140 
C    -2.4822405   -0.1120228   -1.2156453 
C    -2.0068936   -1.3933214   -0.5411304 
C    -0.5052190   -1.1813099   -0.4411644 
C    -2.3043117    1.6361392    0.5820188 
O    -3.0697782    2.5493143    0.4519888 
O    -2.0558578    1.0532997    1.7657003 
H     1.1503208   -0.1981383    2.5857010 
H     2.4437036   -1.1007019    2.1855541 
H     2.5540280    1.0536510    1.0484356 
H     2.0937708   -1.4440138   -0.6214480 
H     3.6162361   -0.8164647   -0.0157955 
H     3.2725207    1.5143914   -1.3974255 
H    -1.3728557    1.7802075   -1.2800974 
H    -2.2810430   -0.1502064   -2.2878747 
H    -3.5429665    0.0949578   -1.0821959 
H    -2.4360515   -1.4781822    0.4590000 
H    -2.2636232   -2.2915728   -1.1017449 
H    -0.0203011   -1.4525387   -1.3863559 
H    -0.0349000   -1.7294105    0.3729650 
H    -2.5664500    1.5479946    2.4183605 
C     2.3881800    4.2454920    0.3144537 
O     3.2671455    3.5243927    0.0834223 
O     1.5531557    5.0079032    0.5435851 
