44
Energy = -1408.956216427
N     1.8252556    0.4558854   -2.5997155 
C     1.6779038   -0.5262119   -1.5495828 
C     3.0408133   -0.9148702   -0.9635426 
C     3.7804057    0.2570643   -0.3444955 
S     5.3212042   -0.3247223    0.3902543 
C     5.9811310    1.2451856    0.9582751 
C     0.7533943   -0.0525898   -0.4261932 
O     0.5436901    1.1301230   -0.2194458 
N     0.2047412   -1.0345770    0.3231192 
C    -0.5453364   -0.7591881    1.5188599 
C    -2.0627328   -0.8852556    1.3218537 
C    -2.5812069    0.0319694    0.2304775 
C    -4.0860496   -0.0678846    0.0479725 
C    -4.5991540    0.6863026   -1.1665317 
N    -4.2486528    2.0981314   -1.1025823 
C    -0.0917408   -1.7196021    2.5908784 
O     0.5371989   -2.7234086    2.3854270 
O    -0.5069906   -1.3509054    3.8067463 
H     0.9557137    0.5377287   -3.1115509 
H     1.9630542    1.3646719   -2.1717395 
H     1.2436915   -1.4302433   -1.9875733 
H     3.6404015   -1.3368853   -1.7724366 
H     2.9071573   -1.6979077   -0.2110687 
H     4.0150645    1.0008611   -1.1094028 
H     3.1754054    0.7390195    0.4275151 
H     6.1530362    1.9249163    0.1225695 
H     5.3131855    1.7149100    1.6816201 
H     6.9342973    1.0384142    1.4437938 
H     0.5223974   -1.9837994    0.2065590 
H    -0.3153964    0.2637144    1.8269073 
H    -2.3019449   -1.9270672    1.0798618 
H    -2.5496972   -0.6591737    2.2741804 
H    -2.3003887    1.0627028    0.4549709 
H    -2.0904074   -0.2164361   -0.7143661 
H    -4.3791422   -1.1181729   -0.0544638 
H    -4.5939860    0.3005822    0.9479420 
H    -4.1304998    0.2721382   -2.0646366 
H    -5.6802910    0.5087920   -1.2608195 
H    -4.6546347    2.5296449   -0.2815928 
H    -4.6159440    2.5930965   -1.9040587 
H    -0.2117754   -2.0306751    4.4255394 
C    -1.3846476    2.6664888   -1.7710351 
O    -1.4074200    1.8304786   -2.5742223 
O    -1.3393506    3.5295252   -1.0054745 
