41
Energy = -955.5730231921
N    -1.8419797   -0.4501248   -2.4995024 
C    -1.3875966   -0.2305907   -1.1415919 
C    -2.2733010   -0.9909918   -0.1428775 
C    -3.5416241   -0.2693750    0.3182481 
C    -4.4634930    0.1327191   -0.8231061 
C    -3.2149779    0.9254195    1.2049003 
C     0.0516201   -0.6933259   -0.9296296 
O     0.5103788   -1.6511439   -1.5234002 
N     0.7481971    0.0175888   -0.0114526 
C     2.0496942   -0.3743795    0.4575348 
C     3.1165200    0.6953161    0.1554668 
C     3.2294525    0.8976170   -1.3468391 
C     4.4670319    0.3406286    0.7588494 
C     1.9621446   -0.6278631    1.9478127 
O     1.3520032    0.0667773    2.7196052 
O     2.6495854   -1.7049085    2.3348466 
H    -1.3485433    0.1667210   -3.1329914 
H    -1.5706965   -1.3906428   -2.7673202 
H    -1.4431568    0.8422487   -0.9298685 
H    -2.5358599   -1.9451685   -0.6085746 
H    -1.6854452   -1.2344826    0.7481229 
H    -4.0811415   -0.9928636    0.9411391 
H    -4.7164610   -0.7222081   -1.4514818 
H    -5.3890680    0.5605174   -0.4306562 
H    -3.9937233    0.8731323   -1.4723374 
H    -2.6847504    1.7046196    0.6505014 
H    -2.5945284    0.6297328    2.0552808 
H    -4.1271363    1.3777732    1.5989900 
H     0.3036372    0.7920958    0.4541082 
H     2.3075498   -1.3031484   -0.0533950 
H     2.7634158    1.6271669    0.6126756 
H     3.9324386    1.7023034   -1.5689699 
H     2.2679563    1.1546334   -1.7910660 
H     3.5904531   -0.0121449   -1.8324250 
H     5.2064512    1.0962281    0.4894653 
H     4.8213044   -0.6226902    0.3837134 
H     4.4359115    0.2837264    1.8480517 
H     2.5581957   -1.7709103    3.2945603 
C    -0.2664230    2.4496910    2.7690260 
O    -0.0473851    2.6163160    1.6417588 
O    -0.5037139    2.3142884    3.8891565 
