24
Energy = -1117.951384001
N     2.4637800   -0.7260909    1.6323219 
C     2.7111411   -0.3322919    0.2577350 
C     1.4414241   -0.0182885   -0.5143977 
O     1.4596436    0.1135708   -1.7258665 
N     0.3471786    0.1173523    0.2541582 
C    -0.9384738    0.4021057   -0.2902562 
C    -1.9110895   -0.7865466   -0.2091667 
S    -1.2805117   -2.3072308   -0.9442139 
C    -1.5637969    1.5734115    0.4379550 
O    -1.2366951    1.9641764    1.5236418 
O    -2.5773366    2.1016625   -0.2614943 
H     3.2413801   -0.4944898    2.2313822 
H     2.3043026   -1.7209487    1.7061492 
H     3.2613011   -1.0638214   -0.3424714 
H     3.3032132    0.5859694    0.2452676 
H     0.4863554    0.0384373    1.2522983 
H    -0.7999673    0.6675250   -1.3397864 
H    -2.1027591   -1.0369817    0.8369955 
H    -2.8613461   -0.5103270   -0.6643184 
H    -1.1245741   -1.8235915   -2.1860195 
H    -2.9554241    2.8080522    0.2771930 
C     0.3656487    0.1975707   -4.2858061 
O     1.3918141    0.4634415   -4.7411535 
O    -0.6879636   -0.0674114   -3.8792842 
