53
Energy = -1404.121081105
N     2.5944651    0.1386573    2.5453669 
C     2.5070691    1.3054745    1.6801087 
C     3.2368139    1.0549514    0.3617076 
C     2.6542193   -0.0747311   -0.4745514 
C     3.5045904   -0.4076632   -1.6867124 
N     4.7648650   -0.9880289   -1.2875569 
C     5.7513928   -1.2332602   -2.2238068 
N     5.7663098   -0.8939981   -3.4519595 
N     6.8161642   -1.9434095   -1.6881777 
C     1.0594131    1.6741776    1.3783597 
O     0.7835410    2.7400947    0.8502621 
N     0.1499148    0.7476590    1.7137766 
C    -1.2477367    0.9003560    1.4183117 
C    -1.5471305    0.5237814   -0.0525633 
C    -2.9767646    0.6239844   -0.4480467 
C    -3.9756860   -0.3984530   -0.3292069 
C    -3.9601987   -1.7204887    0.1243904 
C    -5.1340802   -2.4466320    0.1072070 
C    -6.3300054   -1.8805030   -0.3558083 
C    -6.3763024   -0.5775096   -0.8120122 
C    -5.1925865    0.1516920   -0.7926524 
N    -4.9333777    1.4420283   -1.1702592 
C    -3.6066695    1.7203968   -0.9656492 
C    -2.0174696    0.0054527    2.3576361 
O    -1.6130945   -1.0589439    2.7477103 
O    -3.2074117    0.5071372    2.6827355 
H     3.5292837   -0.2455363    2.5275339 
H     2.3887300    0.3795052    3.5055641 
H     2.9402021    2.2092172    2.1263558 
H     4.2881474    0.8467030    0.5828133 
H     3.2138913    1.9836745   -0.2123209 
H     2.5236552   -0.9729334    0.1379807 
H     1.6555610    0.2011289   -0.8223658 
H     3.7148916    0.5089068   -2.2457465 
H     2.9477359   -1.0738759   -2.3595887 
H     4.6854949   -1.7142653   -0.5923807 
H     4.8796720   -0.5011610   -3.7440897 
H     7.5787174   -2.0010400   -2.3439567 
H     7.1121947   -1.6305149   -0.7772249 
H     0.4841630   -0.1305957    2.0869230 
H    -1.5363915    1.9397913    1.5746728 
H    -0.9361385    1.1950966   -0.6578045 
H    -1.1786364   -0.4934133   -0.2127264 
H    -3.0439584   -2.1691438    0.4905823 
H    -5.1343698   -3.4724747    0.4545009 
H    -7.2343460   -2.4763705   -0.3570066 
H    -7.3022464   -0.1432837   -1.1703026 
H    -5.6020325    2.0791377   -1.5587293 
H    -3.1981838    2.6892958   -1.2050926 
H    -3.6774602   -0.1703240    3.1858324 
C    -0.2096824    4.7610837   -0.7632633 
O     0.6651950    5.4521731   -0.4636345 
O    -1.1058419    4.1064287   -1.0967546 
