40
Energy = -1191.917915482
N    -1.3208173   -2.3475809   -1.4873346 
C    -1.3183363   -0.9326674   -1.1426150 
C    -2.6492749   -0.3926637   -0.6063217 
C    -2.7875132    1.0797105   -0.7610396 
C    -3.1290216    2.0197306    0.1684787 
N    -3.1100980    3.2167863   -0.4997811 
C    -2.7640190    2.9593860   -1.7826212 
N    -2.5653314    1.6810782   -1.9738211 
C    -0.1751099   -0.6285901   -0.1763977 
O    -0.1866904    0.3591785    0.5445119 
N     0.8361869   -1.5121886   -0.2434086 
C     1.9558830   -1.5781155    0.6551315 
C     2.6268340   -0.2294120    0.9540179 
C     2.9409018    0.5782684   -0.3034439 
C     2.9942275    2.0658178   -0.0126168 
O     4.0241499    2.7089106   -0.0538374 
N     1.7918218    2.6061706    0.2928043 
C     1.5428656   -2.2430914    1.9600524 
O     0.4190182   -2.5187410    2.2772483 
O     2.6056875   -2.4926164    2.7343108 
H    -1.7786938   -2.8881854   -0.7632401 
H    -1.8299651   -2.5021403   -2.3459545 
H    -1.0895651   -0.3708540   -2.0544953 
H    -2.7788498   -0.6737929    0.4405130 
H    -3.4413663   -0.8836290   -1.1808050 
H    -3.3507077    1.9432346    1.2188551 
H    -3.3129287    4.1181499   -0.1082662 
H    -2.6743245    3.7339194   -2.5282561 
H     0.6184704   -2.3146846   -0.8203470 
H     2.6985815   -2.2335957    0.1901136 
H     3.5431529   -0.4323597    1.5081080 
H     1.9739481    0.3412765    1.6104131 
H     2.1697461    0.4055286   -1.0570721 
H     3.9007096    0.2916924   -0.7307294 
H     1.7660019    3.5687807    0.5755050 
H     0.9697521    2.0274376    0.3927165 
H     2.2753160   -2.8835862    3.5526015 
C    -0.9387473    0.0438663    3.2711826 
O    -2.0158373   -0.2484136    2.9669864 
O     0.1211918    0.3485388    3.6199261 
