30
Energy = -873.6236647173
N    -2.7521722    0.1258535   -1.1981874 
C    -1.6743406    0.6376159   -0.3919961 
C    -1.9149813    0.3218113    1.0886897 
O    -3.0833119    1.0476006    1.4301048 
C    -2.0652477   -1.1588618    1.3589204 
C    -0.3616917    0.0860804   -0.9322111 
O    -0.2932066   -0.4263999   -2.0366647 
N     0.7258115    0.2384857   -0.1531964 
C     2.0155738   -0.2510377   -0.5601656 
C     2.7147399    0.6734621   -1.5547329 
C     2.8439508   -0.4285300    0.6881663 
O     2.5169672   -0.0573211    1.7846688 
O     4.0066806   -1.0340323    0.4359696 
H    -3.5368145    0.7576797   -1.1998977 
H    -2.4281337   -0.0388232   -2.1420268 
H    -1.5716081    1.7342058   -0.4510289 
H    -1.0762380    0.7173370    1.6811641 
H    -3.4391482    0.6850956    2.2421238 
H    -1.1349297   -1.6894591    1.1461805 
H    -2.3066190   -1.3327949    2.4108911 
H    -2.8539539   -1.5689895    0.7295928 
H     0.6545809    0.5887048    0.7881936 
H     1.8916096   -1.2306062   -1.0317982 
H     2.8769300    1.6582178   -1.1133844 
H     2.0830761    0.7769650   -2.4351913 
H     3.6739463    0.2562129   -1.8582204 
H     4.4864002   -1.0905009    1.2716886 
C    -0.1363661   -1.5977797   -4.5619599 
O    -1.2735732   -1.4612386   -4.7211703 
O     1.0045359   -1.7509599   -4.4439320 
