52
Energy = -1324.361449301
N     2.8066632   -2.2304420    0.9704518 
C     2.0484100   -1.3091636    0.1494009 
C     2.6234091   -1.3085307   -1.2731444 
C     3.8696364   -0.4368716   -1.3344702 
C     3.5029407    1.0394598   -1.4982630 
N     4.4266685    1.9687718   -0.8890616 
C     4.3140179    2.2352740    0.4524744 
N     3.3017547    1.8356057    1.1251085 
N     5.4023795    2.9418965    0.9482416 
C     0.5691134   -1.6456038    0.0943098 
O     0.1573568   -2.7955228    0.0461035 
N    -0.2648039   -0.5852717    0.0615784 
C    -1.6990133   -0.7521475   -0.0087218 
C    -2.1307940   -1.1265931   -1.4261529 
C    -3.6183345   -1.0708218   -1.7558917 
C    -4.3398372    0.2162968   -1.3725379 
N    -4.7436598    0.2601207    0.0152212 
C    -4.2829673    1.1797956    0.9106768 
N    -3.3894596    2.0383548    0.5827696 
N    -4.8377896    1.0135396    2.1703141 
C    -2.1177000   -1.6937734    1.1107017 
O    -1.6816270   -1.6283304    2.2284710 
O    -3.0565269   -2.5817942    0.7578418 
H     2.5021961   -3.1737829    0.7548559 
H     2.5879715   -2.0851840    1.9475106 
H     2.1743688   -0.3049887    0.5684362 
H     2.8438340   -2.3426332   -1.5475335 
H     1.8771370   -0.9469983   -1.9888636 
H     4.4260769   -0.5767490   -0.4042815 
H     4.5261129   -0.7501845   -2.1511320 
H     2.5359027    1.2329863   -1.0347885 
H     3.4082099    1.2920626   -2.5574258 
H     5.3740587    1.9272543   -1.2267861 
H     3.3276751    2.1922738    2.0729361 
H     5.7961395    3.6169260    0.3118357 
H     5.2622009    3.3232149    1.8680943 
H     0.1067641    0.3257104    0.2657493 
H    -2.1270959    0.2222725    0.2509452 
H    -1.7387459   -2.1182079   -1.6585344 
H    -1.6116731   -0.4198467   -2.0799234 
H    -4.1397691   -1.9206107   -1.3099427 
H    -3.7136060   -1.1959049   -2.8383599 
H    -3.7109762    1.0905481   -1.5449169 
H    -5.2295617    0.3254189   -2.0014980 
H    -5.1346022   -0.5807653    0.4025286 
H    -3.2165408    2.6946492    1.3342148 
H    -5.8135022    0.7656305    2.1898517 
H    -4.5999757    1.7296427    2.8337304 
H    -3.1580177   -3.1771541    1.5119416 
C    -0.4286191   -4.2129852    2.6477559 
O     0.5695545   -3.7967368    3.0524766 
O    -1.4238649   -4.6755102    2.2761128 
