36
Energy = -952.1885144760
N     3.7064383   -0.6088054    0.8422575 
C     2.9053511    0.3936545    1.4988543 
C     3.3260956    1.7716006    0.9983726 
O     3.0706722    1.9152857   -0.3831587 
C     1.3836801    0.2903907    1.3773738 
O     0.6510685    1.0916116    1.9416780 
N     0.9123457   -0.7131045    0.6211373 
C    -0.4952656   -0.9230651    0.4194425 
C    -1.0157445   -0.0778263   -0.7550266 
C    -2.5247485   -0.0325119   -0.9699872 
C    -2.8263889    0.8630702   -2.1638131 
C    -3.2697133    0.4505290    0.2663358 
C    -0.6998855   -2.3954221    0.1638783 
O     0.1510472   -3.1344896   -0.2554543 
O    -1.9479907   -2.7939301    0.4272413 
H     3.4872810   -1.5559482    1.1105732 
H     3.6821305   -0.5078317   -0.1629375 
H     3.1072631    0.3655917    2.5751838 
H     2.8152082    2.5400148    1.5817293 
H     4.4028580    1.8711363    1.1428015 
H     2.1997056    2.3041639   -0.4856640 
H     1.5503107   -1.3427091    0.1631982 
H    -1.0165549   -0.6322836    1.3324264 
H    -0.5179478   -0.4206444   -1.6676791 
H    -0.6553991    0.9372993   -0.5681249 
H    -2.8769303   -1.0414058   -1.2072449 
H    -2.3113254    0.5194832   -3.0635814 
H    -3.8968834    0.8862727   -2.3759155 
H    -2.5042775    1.8899151   -1.9680064 
H    -3.1714357   -0.2413203    1.1037773 
H    -4.3355170    0.5553504    0.0545470 
H    -2.8979473    1.4258163    0.5923601 
H    -2.0006744   -3.7309662    0.1990212 
C    -0.3806602    3.4467706    0.9471219 
O     0.3868756    3.4133066    0.0771645 
O    -1.1690577    3.5245786    1.7845511 
