29
Energy = -947.6250354086
N     2.9309964   -1.5710753   -0.9551906 
C     2.1958653   -0.8103452    0.0302643 
C     2.9479402    0.3959893    0.5986657 
C     0.9232095   -0.2964064   -0.6222234 
O     0.8940586    0.0452851   -1.7863450 
N    -0.1518409   -0.2161012    0.2062075 
C    -1.3274060    0.5201345   -0.1557102 
C    -2.5991332   -0.2899360    0.0740813 
C    -2.6728152   -1.4767220   -0.8475177 
O    -2.2206703   -1.5238459   -1.9563813 
O    -3.3493554   -2.4918873   -0.2904654 
C    -1.3907686    1.8186832    0.6249230 
O    -0.6638170    2.1071608    1.5352652 
O    -2.3781552    2.6088886    0.1899407 
H     2.7809430   -1.1494307   -1.8649864 
H     3.9218811   -1.5516234   -0.7589561 
H     1.9157777   -1.4706919    0.8604076 
H     2.3554374    0.9348792    1.3420888 
H     3.2039832    1.0871701   -0.2064077 
H     3.8710233    0.0631610    1.0777343 
H     0.0192596   -0.3448619    1.1900092 
H    -1.2464015    0.7609841   -1.2178565 
H    -2.6764964   -0.6238681    1.1100767 
H    -3.4754497    0.3302737   -0.1317465 
H    -3.3864714   -3.1970243   -0.9493715 
H    -2.3645646    3.4088452    0.7300615 
C    -0.8958453    0.1003116   -4.0350452 
O    -1.4367556    1.0374469   -3.6193939 
O    -0.3703921   -0.8180722   -4.4967347 
