42
Energy = -1068.598777713
N     2.7109917    0.7380264    1.6929459 
C     2.8747324    0.2872345    0.3175883 
C     3.7759610   -0.9413880    0.0861124 
C     4.9772467   -0.9344835    1.0210674 
C     4.2555919   -1.0049855   -1.3586204 
C     1.4853122    0.0997115   -0.3060641 
O     1.2627790   -0.6691564   -1.2276453 
N     0.5346629    0.8812387    0.2332629 
C    -0.8254631    0.8481439   -0.2245997 
C    -1.6036480   -0.3170740    0.4261002 
C    -3.0405201   -0.4023811    0.0103520 
C    -3.3901438   -0.9293989   -1.2299453 
C    -4.7171808   -0.9783753   -1.6258734 
C    -5.7151562   -0.5022582   -0.7870961 
C    -5.3771741    0.0219885    0.4510937 
C    -4.0480510    0.0709759    0.8443296 
C    -1.4729027    2.1624025    0.1410464 
O    -1.2454607    2.7628201    1.1578161 
O    -2.3527648    2.5693306   -0.7743272 
H     2.4584363   -0.0351194    2.2962031 
H     3.5725250    1.1241744    2.0503683 
H     3.3227133    1.1276964   -0.2290634 
H     3.1768977   -1.8365988    0.2894450 
H     5.5767287   -0.0287057    0.8826982 
H     5.6240430   -1.7861173    0.8031914 
H     4.6978224   -0.9961669    2.0738541 
H     3.4216105   -1.0427709   -2.0544646 
H     4.8687269   -0.1278554   -1.5900662 
H     4.8755517   -1.8896086   -1.5174578 
H     0.7787100    1.4258843    1.0489580 
H    -0.8358582    0.7169263   -1.3068529 
H    -1.5283341   -0.2009210    1.5096453 
H    -1.0671792   -1.2252663    0.1454748 
H    -2.6152345   -1.3063050   -1.8874490 
H    -4.9738386   -1.3943343   -2.5927701 
H    -6.7526322   -0.5445558   -1.0957106 
H    -6.1499404    0.3898259    1.1154764 
H    -3.7859909    0.4811052    1.8139128 
H    -2.7745444    3.3672786   -0.4305873 
C     0.5058457   -2.4755320   -3.2115754 
O     1.5916589   -2.8607127   -3.3018209 
O    -0.5951356   -2.1222662   -3.1559027 
