42
Energy = -1101.877868454
N    -2.1096073   -1.3602244    1.4967665 
C    -1.8652959   -1.0902893    0.0984653 
C    -2.5960068    0.1796605   -0.3321011 
C    -4.1103105    0.1500148   -0.1514967 
C    -4.7594371   -0.9461235   -0.9824594 
C    -4.6938682    1.5102488   -0.5057860 
C    -0.4121117   -0.9677791   -0.3595024 
O    -0.1284937   -0.9577835   -1.5475346 
N     0.5143530   -0.8611446    0.6083026 
C     1.9123721   -0.6944357    0.3207078 
C     2.2316845    0.7796671   -0.0147205 
C     3.6518233    1.0538438   -0.3504342 
C     4.2653132    0.9908285   -1.5717627 
N     5.5751368    1.3107713   -1.3364203 
C     5.7027468    1.5540216   -0.0099221 
N     4.5636245    1.4068177    0.6132169 
C     2.6769910   -1.1520288    1.5382437 
O     2.2289126   -1.1284936    2.6554083 
O     3.9031096   -1.5759146    1.2434148 
H    -1.6258967   -2.1761014    1.8413483 
H    -1.9110544   -0.5688268    2.0929385 
H    -2.2578442   -1.9287591   -0.4845108 
H    -2.1820560    1.0214654    0.2384926 
H    -2.3541725    0.3646500   -1.3819759 
H    -4.3214821   -0.0546837    0.9026472 
H    -4.5176300   -0.8241555   -2.0424609 
H    -4.4323060   -1.9401081   -0.6736905 
H    -5.8463689   -0.9144826   -0.8824700 
H    -4.2520878    2.3054886    0.0993770 
H    -4.5085696    1.7504823   -1.5568454 
H    -5.7740922    1.5287009   -0.3468378 
H     0.2474760   -0.8818629    1.5790843 
H     2.1797685   -1.3111288   -0.5385606 
H     1.9407239    1.3934508    0.8401598 
H     1.5861707    1.0351917   -0.8556411 
H     3.8891042    0.7534838   -2.5519299 
H     6.3016719    1.3724953   -2.0260276 
H     6.6406171    1.8386463    0.4411548 
H     4.3551272   -1.7455891    2.0794997 
C     0.7377759   -0.3497305   -4.1051125 
O    -0.2740800   -0.6809231   -4.5518634 
O     1.7698952   -0.0037138   -3.7080746 
