37
Energy = -1065.219179444
N     3.0273309    2.2193099    0.5299668 
C     2.5285860    1.0893335   -0.2286047 
C     3.7335567    0.3712602   -0.8515278 
O     4.5317403    1.2874903   -1.5415031 
C     1.7434860    0.1120002    0.6344867 
O     1.8618044    0.0878507    1.8485020 
N     0.9602676   -0.7498702   -0.0410044 
C     0.1686494   -1.7389327    0.6298300 
C    -1.0738767   -1.1432953    1.3340984 
C    -1.9336291   -0.3401703    0.4068460 
C    -1.7370369    1.0318961    0.2771830 
C    -2.4857594    1.7757959   -0.6212267 
C    -3.4462033    1.1559068   -1.4072246 
C    -3.6576657   -0.2094832   -1.2819766 
C    -2.9071592   -0.9490857   -0.3806001 
C    -0.2276255   -2.7867682   -0.3794740 
O    -0.0887168   -2.6880285   -1.5692927 
O    -0.7804658   -3.8551529    0.2030218 
H     2.3331343    2.9507862    0.5869756 
H     3.2021983    1.9090307    1.4809014 
H     1.8986720    1.4543923   -1.0445992 
H     4.2956915   -0.1290996   -0.0484277 
H     3.4032359   -0.3941656   -1.5563106 
H     4.5444064    2.0702273   -0.9731990 
H     0.8221095   -0.6418378   -1.0337244 
H     0.7771403   -2.2203241    1.3998417 
H    -0.6933937   -0.5159081    2.1401385 
H    -1.6373427   -1.9624726    1.7832407 
H    -0.9900641    1.5188316    0.8942193 
H    -2.3204360    2.8428953   -0.7073581 
H    -4.0332812    1.7352079   -2.1091927 
H    -4.4080210   -0.7009718   -1.8888522 
H    -3.0841250   -2.0147460   -0.2834086 
H    -1.0199049   -4.4700193   -0.5017882 
C    -0.9219290   -0.5523637   -3.4096358 
O    -0.1413238    0.1315059   -2.8935674 
O    -1.6974923   -1.2162487   -3.9478596 
