48
Energy = -1238.372840239
N     2.4123700    1.6061253    1.6634201 
C     2.1159106    1.5651495    0.2482943 
C     2.8036566    0.3793289   -0.4310986 
C     4.3191041    0.4835496   -0.5733777 
C     5.1476479    0.3625396    0.7008187 
C     4.9788156   -0.9578223    1.4468024 
N     5.3080427   -2.1707430    0.7141671 
C     0.6380394    1.5301554   -0.1510331 
O     0.2754267    1.8213513   -1.2774849 
N    -0.2234863    1.1320427    0.8087243 
C    -1.6246191    0.9582014    0.5432186 
C    -1.8889286   -0.3471170   -0.2425998 
C    -3.3257313   -0.5657441   -0.5995892 
C    -3.9103690    0.1265956   -1.6539995 
C    -5.2493412   -0.0400779   -1.9650653 
C    -6.0321888   -0.9132483   -1.2186660 
O    -7.3478535   -1.1179393   -1.4776113 
C    -5.4629225   -1.6180117   -0.1659789 
C    -4.1239064   -1.4390943    0.1330513 
C    -2.3400347    0.9124558    1.8689259 
O    -1.8634130    0.4360547    2.8689868 
O    -3.5656449    1.4234017    1.8146553 
H     1.9199377    2.3417956    2.1484544 
H     2.2416542    0.7254938    2.1283859 
H     2.4977261    2.4821329   -0.2125048 
H     2.5251370   -0.5358152    0.1060382 
H     2.3709831    0.2923018   -1.4296779 
H     4.5543067    1.4339823   -1.0624516 
H     4.6397008   -0.2921463   -1.2774657 
H     6.2047510    0.4753509    0.4328906 
H     4.9006485    1.1812815    1.3794245 
H     3.9498976   -1.0593062    1.8046430 
H     5.5981748   -0.9334084    2.3477263 
H     6.2569008   -2.1239103    0.3641656 
H     4.7090625   -2.2760398   -0.0939895 
H     0.1190266    0.8694485    1.7180870 
H    -1.9894436    1.7995955   -0.0470949 
H    -1.2719987   -0.2751394   -1.1397981 
H    -1.5164223   -1.1831788    0.3536757 
H    -3.3074751    0.8067400   -2.2460140 
H    -5.6875897    0.5067057   -2.7940435 
H    -7.6101260   -0.5840011   -2.2295681 
H    -6.0786499   -2.3029763    0.4027836 
H    -3.6865032   -1.9957321    0.9554671 
H    -3.9780352    1.2811784    2.6766288 
C    -0.0383579   -1.8562026    2.9540624 
O     0.8858790   -1.1604255    3.0192915 
O    -0.9420478   -2.5709024    2.8810134 
