33
Energy = -1062.090012769
N     2.0573275   -2.2624497   -0.6490101 
C     1.3725582   -1.0292910   -0.3456065 
C     1.9238278    0.1070210   -1.2198954 
C     3.1765649    0.7213484   -0.6264763 
C     2.9715371    1.5526125    0.6142309 
O     3.8583444    1.9987558    1.2863660 
O     1.6712771    1.7726162    0.8995017 
C    -0.1445064   -1.1044162   -0.5015178 
O    -0.6802310   -1.9627076   -1.1912727 
N    -0.8058123   -0.1449704    0.1664808 
C    -2.2203068    0.1242070    0.0819056 
C    -3.1196526   -1.0616678    0.4915719 
O    -3.3164166   -1.9650263   -0.5469362 
C    -2.4744675    1.3425819    0.9362578 
O    -1.6364274    1.8891193    1.6075269 
O    -3.7358455    1.7603505    0.8629602 
H     1.8763463   -2.9533941    0.0672350 
H     1.6758791   -2.6458761   -1.5067464 
H     1.5698636   -0.7824007    0.7013978 
H     2.1520589   -0.3110022   -2.2025824 
H     1.1702024    0.8813389   -1.3684702 
H     3.6737760    1.3783610   -1.3456268 
H     3.9048547   -0.0532430   -0.3758687 
H     1.6233696    2.3302279    1.6893748 
H    -0.2640997    0.5369439    0.6817253 
H    -2.5114718    0.3851158   -0.9435176 
H    -2.6680330   -1.5286290    1.3788432 
H    -4.1001937   -0.6751348    0.7719162 
H    -2.4385886   -2.1777249   -0.9106291 
H    -3.8180422    2.5343390    1.4345267 
C    -0.5026497    3.7381578    3.4563313 
O     0.5605832    3.3905104    3.1555738 
O    -1.5476110    4.1070043    3.7787475 
