50
Energy = -1214.931828090
N    -0.6854114    1.8270036   -1.7546184 
C    -0.7882741    0.7347230   -0.8168116 
C    -2.0166976   -0.1280667   -1.1163503 
C    -3.3123252    0.5271102   -0.6775755 
C    -4.5419785   -0.3114354   -0.9892591 
C    -5.7528513    0.0984789   -0.1667422 
N    -5.5442032   -0.2297797    1.2392059 
C     0.4344201   -0.1698886   -0.7971643 
O     1.1227897   -0.3690092   -1.7892579 
N     0.6913658   -0.7470266    0.3987072 
C     1.6231752   -1.8262585    0.5412680 
C     2.5798841   -1.6439703    1.7243789 
C     3.3837120   -0.3509994    1.7028496 
C     4.2344823   -0.1358375    0.4436979 
N     3.6112781    0.6493800   -0.5896298 
C     3.4413326    2.0021364   -0.4279810 
N     3.9433532    2.7621972    0.4689538 
N     2.6010070    2.5635570   -1.3825470 
C     0.8747670   -3.1353447    0.6999812 
O    -0.2888377   -3.2371732    0.9823843 
O     1.6768899   -4.1901840    0.5197592 
H     0.1247953    2.3908482   -1.5196608 
H    -0.4941778    1.4419166   -2.6727732 
H    -0.9068341    1.1578764    0.1868729 
H    -2.0296796   -0.3409039   -2.1909669 
H    -1.9141607   -1.0986443   -0.6191366 
H    -3.3975277    1.5099978   -1.1482683 
H    -3.2748790    0.6980269    0.4022054 
H    -4.3311924   -1.3691911   -0.7876915 
H    -4.7846547   -0.2487191   -2.0542970 
H    -5.8897295    1.1814627   -0.2422991 
H    -6.6560121   -0.3638570   -0.5890585 
H    -6.2576120    0.1906903    1.8184459 
H    -5.6056068   -1.2307136    1.3761625 
H     0.0139344   -0.6186137    1.1343897 
H     2.1882198   -1.8842501   -0.3910357 
H     2.0013232   -1.6916879    2.6530137 
H     3.2574367   -2.5013330    1.7351241 
H     2.7215153    0.5094798    1.8221039 
H     4.0339562   -0.3614139    2.5818876 
H     5.1750733    0.3498540    0.7148210 
H     4.5163380   -1.0982614    0.0072920 
H     2.9053610    0.1890844   -1.1517962 
H     4.4666942    2.2374172    1.1581498 
H     2.6280275    2.1189566   -2.2866206 
H     2.7259244    3.5621733   -1.4278281 
H     1.1436838   -4.9822109    0.6632580 
C    -2.5895384   -1.6902303    2.1519982 
O    -1.8520277   -0.8238002    2.3730023 
O    -3.3268567   -2.5540321    1.9474920 
