41
Energy = -1100.930204433
N     2.7359300    0.2825360    1.6342603 
C     2.6196817    0.0022871    0.2174121 
C     2.2840364   -1.4765300    0.0003158 
C     3.4770535   -2.3349120    0.3452438 
O     3.8450402   -2.4894656    1.4969969 
N     4.1189441   -2.8843587   -0.7075372 
C     1.5205453    0.8213031   -0.4528893 
O     1.4384342    0.8911228   -1.6706646 
N     0.6677044    1.4010897    0.4006959 
C    -0.4224666    2.2277280   -0.0257864 
C    -1.7754933    1.5056792    0.0355701 
C    -1.8367111    0.3122306   -0.9039665 
C    -3.1667120   -0.4267746   -0.8771089 
C    -3.4486708   -1.1547662    0.4245889 
N    -4.6747926   -1.9312025    0.3144897 
C    -0.4648836    3.4656154    0.8388188 
O     0.1061101    3.5959927    1.8868643 
O    -1.2578062    4.4097462    0.3144028 
H     3.3265973    1.0849768    1.8030960 
H     3.1492357   -0.5149004    2.1062430 
H     3.5291518    0.2309480   -0.3543343 
H     1.4655355   -1.7499547    0.6698849 
H     1.9660185   -1.6200864   -1.0304538 
H     4.9670108   -3.3950927   -0.5361149 
H     3.8621306   -2.6575842   -1.6512007 
H     0.8910589    1.3090055    1.3843770 
H    -0.2270023    2.5237905   -1.0599102 
H    -1.9505286    1.1953258    1.0699350 
H    -2.5610422    2.2208246   -0.2224594 
H    -1.0311782   -0.3863766   -0.6588144 
H    -1.6321846    0.6575360   -1.9208630 
H    -3.1899051   -1.1649787   -1.6827507 
H    -3.9832089    0.2768760   -1.0824520 
H    -3.4609861   -0.4383602    1.2591385 
H    -2.6266587   -1.8499690    0.6241888 
H    -5.4667894   -1.3169026    0.1726526 
H    -4.8537389   -2.4421036    1.1685198 
H    -1.2643976    5.1480823    0.9361082 
C     2.7078148   -0.2360553   -3.8822843 
O     3.0959618   -1.1638144   -3.3022675 
O     2.3505911    0.6608765   -4.5117669 
