36
Energy = -1002.478251435
N    -4.0575267    0.9745789   -2.8391257 
C    -4.1363132    0.4929469   -1.4800434 
C    -2.8796597   -0.2854681   -1.1570504 
O    -2.2853210   -0.9238706   -2.0109668 
N    -2.4777626   -0.2585761    0.1262240 
C    -1.3359302   -1.0180600    0.5592274 
C    -0.0066592   -0.3553840    0.1511547 
C     1.1392304   -1.3334484   -0.0363458 
C     2.4291829   -0.6441037   -0.4404776 
N     2.9227107    0.1882487    0.6309570 
C     4.0163507    1.0087008    0.4350548 
N     4.6271323    1.2505179   -0.6566603 
N     4.4464276    1.5985033    1.6159341 
C    -1.4391786   -1.1654740    2.0556821 
O    -2.2035784   -0.5500987    2.7507759 
O    -0.5573435   -2.0430850    2.5456447 
H    -4.9725397    1.1989176   -3.2014375 
H    -3.6560044    0.2486311   -3.4210401 
H    -4.2449431    1.3294625   -0.7834160 
H    -4.9739469   -0.1967827   -1.2841222 
H    -2.9871217    0.2502976    0.8304432 
H    -1.3791991   -2.0109983    0.1013249 
H    -0.1933466    0.1416991   -0.8011324 
H     0.2585810    0.4229160    0.8713211 
H     0.8690761   -2.0454671   -0.8209004 
H     1.3060875   -1.9194067    0.8724814 
H     3.1702849   -1.3965524   -0.7429672 
H     2.2411031   -0.0099713   -1.3110187 
H     2.9058534   -0.2469948    1.5402833 
H     4.2926942    0.6641882   -1.4118413 
H     3.7040912    1.9509281    2.1994653 
H     5.1548344    2.2915375    1.4345349 
H    -0.6730447   -2.0519839    3.5043333 
C    -0.6372105   -0.1427853   -4.1528626 
O    -1.5038211   -0.2605497   -4.9086230 
O     0.2584441   -0.0151299   -3.4306605 
