47
Energy = -1346.391124017
N    -1.6520551    1.6922503   -0.5253603 
C    -1.9421335    0.5307619    0.2962200 
C    -3.2175852   -0.2377518   -0.0950637 
C    -4.4547199    0.5483024    0.1529751 
C    -5.5044258    0.2378511    0.9736282 
N    -6.3771904    1.2901246    0.8731556 
C    -5.8352106    2.1844194    0.0164318 
N    -4.6801517    1.7707333   -0.4360934 
C    -0.7524225   -0.4056220    0.1694014 
O    -0.3827776   -0.7955796   -0.9231395 
N    -0.1628238   -0.7567352    1.3299582 
C     1.0304566   -1.5472138    1.4001205 
C     2.2920135   -0.6608819    1.5680994 
C     2.4842281    0.2540147    0.4143947 
C     3.2496275   -0.0162621   -0.7672107 
C     4.0741870   -1.0703596   -1.1686844 
C     4.6745350   -1.0143634   -2.4107484 
C     4.4712497    0.0784151   -3.2646585 
C     3.6631429    1.1352500   -2.8954406 
C     3.0563738    1.0740672   -1.6465650 
N     2.2181020    1.9544882   -1.0177918 
C     1.8735576    1.4597663    0.2106794 
C     0.9270686   -2.4803161    2.5786768 
O     0.1525287   -2.3517353    3.4897220 
O     1.8462201   -3.4504792    2.5306399 
H    -1.3277456    1.3538302   -1.4252569 
H    -2.5162767    2.1989857   -0.6892806 
H    -2.0452365    0.8562705    1.3374476 
H    -3.2740641   -1.1723950    0.4704105 
H    -3.1308923   -0.5044709   -1.1518485 
H    -5.7012471   -0.6173033    1.5972929 
H    -7.2609064    1.3748538    1.3411122 
H    -6.3209994    3.1125089   -0.2414730 
H    -0.5556419   -0.4409721    2.2003300 
H     1.1188902   -2.1231707    0.4781294 
H     2.1836706   -0.0967799    2.4989171 
H     3.1583726   -1.3144073    1.6870675 
H     4.2330842   -1.9253186   -0.5219706 
H     5.3126170   -1.8274299   -2.7345270 
H     4.9531766    0.0913493   -4.2343118 
H     3.5023763    1.9751350   -3.5606460 
H     1.8411207    2.7913400   -1.4199746 
H     1.1816881    1.9993773    0.8370619 
H     1.7511175   -3.9711425    3.3378632 
C     1.3253127   -2.2399798   -2.6055371 
O     1.1864397   -1.4515329   -3.4371968 
O     1.4765378   -3.0662254   -1.8067445 
