33
Energy = -912.9113070749
N     3.3760846    1.7336882    1.3782953 
C     2.4241506    1.2424408    0.4134622 
C     3.0355677    0.0098494   -0.2828317 
O     2.1956405   -0.5821140   -1.2423787 
C     1.0844109    0.8436568    1.0121446 
O     0.9450945    0.5496297    2.1869583 
N     0.0606575    0.7620341    0.1235206 
C    -1.1066487   -0.0080884    0.4706215 
C    -2.0685117   -0.0704739   -0.7242367 
C    -3.2404991   -1.0072989   -0.4749544 
C    -2.5646450    1.3272095   -1.0673678 
C    -0.6645222   -1.3964133    0.9086461 
O     0.2661655   -1.9970380    0.4253986 
O    -1.4217281   -1.8942202    1.8765013 
H     3.3794310    1.1114351    2.1789227 
H     3.0889906    2.6378544    1.7281651 
H     2.2572015    2.0060024   -0.3523840 
H     3.9433069    0.3439397   -0.7856465 
H     3.3297180   -0.7089892    0.4896795 
H     1.5929967   -1.1855986   -0.7863666 
H     0.3410026    0.7420470   -0.8465805 
H    -1.6100697    0.4553245    1.3216002 
H    -1.4923883   -0.4612942   -1.5725143 
H    -2.9243960   -2.0407870   -0.3312360 
H    -3.8025915   -0.7034470    0.4111424 
H    -3.9204596   -0.9833951   -1.3276351 
H    -3.1929952    1.2974384   -1.9589165 
H    -1.7458728    2.0226752   -1.2520381 
H    -3.1655314    1.7290346   -0.2474786 
H    -1.0326821   -2.7353047    2.1504743 
C     2.0777793   -1.9260741    3.3206613 
O     3.1198389   -1.4959219    3.0652103 
O     1.0531934   -2.3891691    3.5939140 
