38
Energy = -1214.654716183
N    -2.0439102   -0.4443915    1.8333036 
C    -1.6866605   -1.2869669    0.7139463 
C    -2.5453213   -0.9310292   -0.4966227 
C    -4.0149784   -1.1994456   -0.2488308 
C    -4.9045302   -0.6090795   -1.2996304 
O    -4.5821561    0.2029473   -2.1245224 
O    -6.1612621   -1.0818900   -1.2100113 
C    -0.2223501   -1.3005981    0.2687659 
O     0.1779384   -2.0906178   -0.5680864 
N     0.5790960   -0.3858959    0.8491386 
C     1.9496699   -0.2209596    0.4588490 
C     2.0392322    0.5654884   -0.8627120 
C     3.4330993    0.8989669   -1.3675871 
C     4.1332873    2.0609362   -0.7172069 
O     5.3146752    2.2614484   -0.7546051 
O     3.2797448    2.9061935   -0.1037921 
C     2.6749167    0.4446188    1.6027042 
O     2.1451765    1.0669119    2.4854227 
O     3.9945731    0.2659978    1.5231760 
H    -1.5521418   -0.6746373    2.6837281 
H    -1.9365639    0.5411465    1.6340515 
H    -1.8977795   -2.3252433    0.9921746 
H    -2.4044645    0.1267967   -0.7392198 
H    -2.1899642   -1.4990817   -1.3564010 
H    -4.3204593   -0.7723109    0.7117652 
H    -4.2231792   -2.2698537   -0.1777502 
H    -6.6712029   -0.6368496   -1.8978599 
H     0.2078111    0.2656735    1.5200559 
H     2.3930671   -1.2074492    0.3002609 
H     1.5354221   -0.0650213   -1.5963986 
H     1.4479861    1.4757686   -0.7603728 
H     4.1126313    0.0480724   -1.3109022 
H     3.3695815    1.1620697   -2.4283415 
H     3.8081687    3.6288312    0.2571777 
H     4.4036579    0.7543525    2.2491801 
C     0.6324381    3.4625651    1.8058550 
O    -0.2246708    2.7728238    1.4426987 
O     1.4694377    4.1735455    2.1624480 
