46
Energy = -1050.164669089
N    -1.4196573   -1.8349619   -0.8334740 
C    -1.3576538   -0.3944715   -0.9299476 
C    -1.8692398    0.2472076    0.3606277 
C    -3.2841750   -0.1556379    0.7450985 
C    -4.3257307    0.1837131   -0.3077359 
C    -5.7517410   -0.0116707    0.1789825 
N    -6.0674208    0.9155432    1.2572155 
C    -0.0061272    0.2378055   -1.2572932 
O     0.0791366    1.3968978   -1.6263494 
N     1.0765706   -0.5496387   -1.0851188 
C     2.4028601   -0.0672092   -1.3486370 
C     2.9398727    0.7951971   -0.1765441 
C     4.1760999    1.5957806   -0.5498640 
C     3.0814597    0.0323739    1.1419709 
C     4.3189854   -0.8390700    1.3018790 
C     3.2549486   -1.2559688   -1.7103047 
O     2.9496309   -2.4057527   -1.5128854 
O     4.4050277   -0.9113848   -2.2928370 
H    -0.9634478   -2.1958229   -0.0071738 
H    -1.0548943   -2.3052573   -1.6485822 
H    -2.0078605   -0.0775268   -1.7507617 
H    -1.8048847    1.3305965    0.2365075 
H    -1.1796775   -0.0162220    1.1722864 
H    -3.3208646   -1.2309532    0.9412109 
H    -3.5523608    0.3463088    1.6774669 
H    -4.1756132   -0.4367010   -1.1958093 
H    -4.1993689    1.2245839   -0.6327840 
H    -6.4362161    0.0673220   -0.6784163 
H    -5.8578073   -1.0282550    0.5707197 
H    -6.9804803    0.7207285    1.6443643 
H    -6.0955506    1.8638206    0.9043734 
H     0.9637985   -1.5191232   -0.8405609 
H     2.3616926    0.5917804   -2.2213953 
H     2.1244189    1.5109843   -0.0395750 
H     4.4366585    2.2758364    0.2638491 
H     3.9906186    2.1987749   -1.4407134 
H     5.0417350    0.9658691   -0.7513077 
H     2.1807003   -0.5696938    1.2943327 
H     3.0765230    0.7743865    1.9459121 
H     4.3201739   -1.3155425    2.2841297 
H     4.3741708   -1.6388808    0.5622670 
H     5.2363434   -0.2533987    1.2256308 
H     4.8870562   -1.7293481   -2.4698484 
C     2.1856923   -3.8747864    0.8550708 
O     1.1657070   -3.3242080    0.8677252 
O     3.1939746   -4.4358514    0.8692347 
