35
Energy = -1175.373177788
N    -2.6428056   -0.9315056    0.8015066 
C    -2.4554741   -0.3370827   -0.5033493 
C    -3.0035338    1.0801513   -0.5144601 
C    -4.5026595    1.0843091   -0.4496475 
O    -5.2165636    0.2399878   -0.9217319 
O    -4.9785035    2.1675408    0.1765722 
C    -1.0424212   -0.3258609   -1.0927204 
O    -0.7967192    0.2450943   -2.1396626 
N    -0.1017752   -0.9963264   -0.3953418 
C     1.2286024   -1.1634503   -0.9084588 
C     2.1016246    0.0852953   -0.7360893 
C     2.2983800    0.4684033    0.7273827 
C     3.0683534    1.7499540    0.8534164 
O     2.6130165    2.8092613    1.1849595 
O     4.3633611    1.5875289    0.5252574 
C     1.8382096   -2.3596628   -0.2186423 
O     1.3277468   -2.9564211    0.6922050 
O     3.0326319   -2.6716800   -0.7245804 
H    -2.0699066   -0.5116727    1.5198146 
H    -2.5331243   -1.9344784    0.8079680 
H    -3.0562962   -0.9137048   -1.2138209 
H    -2.7090216    1.5684752   -1.4471066 
H    -2.5948138    1.6723788    0.3064289 
H    -5.9412836    2.0955141    0.1653377 
H    -0.3552230   -1.5481271    0.4077953 
H     1.1753796   -1.3757228   -1.9811100 
H     1.6032850    0.8922769   -1.2751360 
H     3.0655038   -0.0912973   -1.2138554 
H     2.8437966   -0.3179463    1.2565655 
H     1.3369230    0.6178655    1.2156667 
H     4.7813504    2.4537191    0.6058938 
H     3.3672839   -3.4291003   -0.2282132 
C    -5.5689802   -1.6579543    1.3235913 
O    -5.3036672   -2.6139896    0.7286033 
O    -5.8621243   -0.7280995    1.9461584 
