44
Energy = -1273.104341638
N     2.9444442    0.8895272   -2.4390458 
C     2.4850491    0.1757362   -1.2669551 
C     3.2307978    0.6477984   -0.0208603 
C     4.7024079    0.2707762   -0.0477832 
C     5.3060629    0.3293287    1.3373617 
O     4.7729818   -0.1958696    2.2969754 
N     6.4860732    0.9819657    1.4411113 
C     0.9851395    0.3352361   -1.0216000 
O     0.3468300    1.2655836   -1.4835462 
N     0.4373768   -0.6028109   -0.2213854 
C    -0.9241522   -0.5084460    0.2242712 
C    -1.8946651   -1.1520355   -0.7922651 
C    -3.3416931   -0.8678140   -0.5347459 
C    -4.2023625   -1.8441194   -0.0455088 
C    -5.5350212   -1.5723082    0.2101127 
C    -6.0326716   -0.2969963   -0.0213407 
O    -7.3441260   -0.0715305    0.2435187 
C    -5.1884998    0.6917105   -0.5137419 
C    -3.8588909    0.4021237   -0.7672730 
C    -1.0191645   -1.1831290    1.5703021 
O    -0.2504705   -2.0245454    1.9596820 
O    -2.0667949   -0.7660178    2.2781812 
H     2.4676990    1.7855259   -2.4629023 
H     2.6476201    0.4059460   -3.2768225 
H     2.6990165   -0.8898602   -1.3997307 
H     2.7820567    0.2097578    0.8701651 
H     3.1176105    1.7330039    0.0658937 
H     5.2489735    0.8796674   -0.7683482 
H     4.7972669   -0.7711580   -0.3703993 
H     6.9162040    1.4247907    0.6523305 
H     6.9361601    1.0250940    2.3382127 
H     1.0049019   -1.3397751    0.1695527 
H    -1.1886560    0.5453514    0.3276392 
H    -1.5990759   -0.7455774   -1.7615585 
H    -1.7082301   -2.2283566   -0.8192900 
H    -3.8231984   -2.8435952    0.1389674 
H    -6.2021858   -2.3370595    0.5866205 
H    -7.5556504    0.8409657    0.0387192 
H    -5.5738984    1.6885948   -0.7033668 
H    -3.2101707    1.1794586   -1.1571284 
H    -2.0831259   -1.2795012    3.0961156 
C     2.8267346   -2.4438220    2.2606640 
O     2.8233559   -2.4455299    1.0995919 
O     2.8192995   -2.4743615    3.4124894 
