34
Energy = -1096.373645005
N    -1.3230141    2.6853708   -0.0391626 
C    -1.4950238    1.2968641    0.3554118 
C    -2.8313397    0.7950381   -0.1581370 
C    -3.1602209   -0.5901298    0.3491533 
O    -2.5235761   -1.1350545    1.2317486 
N    -4.2283398   -1.1777121   -0.2326059 
C    -0.3771372    0.4297664   -0.2091005 
O    -0.2600565    0.2820198   -1.4227741 
N     0.4960207   -0.0749996    0.6774236 
C     1.5241164   -1.0069694    0.2900511 
C     2.9385099   -0.4260492    0.3602976 
C     3.3308202    0.6684263   -0.6208271 
O     4.3760458    1.2632509   -0.4469204 
N     2.5266002    0.8827866   -1.6806291 
C     1.4615954   -2.2055163    1.2120878 
O     0.9480298   -2.2084417    2.2970773 
O     2.0932096   -3.2619615    0.6937450 
H    -1.1824156    2.7360906   -1.0415966 
H    -0.4965845    3.0764607    0.3943469 
H    -1.4913843    1.2417550    1.4442578 
H    -3.6097658    1.4909342    0.1648690 
H    -2.8241359    0.7968494   -1.2518844 
H    -4.7170375   -0.7519670   -0.9969303 
H    -4.4900714   -2.1007101    0.0645033 
H     0.2417720   -0.0613996    1.6553676 
H     1.3081416   -1.3464516   -0.7250704 
H     3.1261089   -0.0279043    1.3590538 
H     3.6627568   -1.2290775    0.2038540 
H     1.5737531    0.5382680   -1.7429399 
H     2.8059809    1.6226296   -2.3012960 
H     2.0539557   -3.9691274    1.3501229 
C    -1.2753061   -1.0862804    3.8201684 
O    -0.8320586   -0.0377663    3.5922391 
O    -1.7181711   -2.1144424    4.0934837 
