41
Energy = -1104.758565320
N    -1.7301277    1.2529467   -1.0793092 
C    -1.2386910    0.6923646    0.1589976 
C    -1.6463183   -0.7742824    0.3178410 
C    -3.1128924   -1.0377882    0.6581807 
C    -4.0594720   -0.8105382   -0.5120868 
C    -3.2595749   -2.4569433    1.1904229 
C     0.2670740    0.7826643    0.4109932 
O     0.7300565    0.6310207    1.5307283 
N     1.0444226    0.9906688   -0.6702583 
C     2.4626040    1.2020272   -0.5618446 
C     3.2879283   -0.0705505   -0.8027559 
C     2.9197551   -1.1936131    0.1462167 
C     3.2461894   -0.8773522    1.5795017 
O     3.9749153    0.0065577    1.9423305 
O     2.6528996   -1.7318480    2.4201088 
C     2.8483298    2.2641337   -1.5615619 
O     2.1157912    2.6959951   -2.4135464 
O     4.1142629    2.6582029   -1.4165695 
H    -1.4247010    2.2008045   -1.2445116 
H    -1.5234920    0.6789859   -1.8841549 
H    -1.6816800    1.2498484    0.9906936 
H    -1.3758178   -1.3187134   -0.5974631 
H    -1.0315329   -1.1887091    1.1189777 
H    -3.3858074   -0.3468075    1.4643911 
H    -4.0017943    0.2107842   -0.8845013 
H    -3.8115459   -1.4857324   -1.3377964 
H    -5.0907883   -1.0186098   -0.2181170 
H    -4.2964429   -2.6706170    1.4578861 
H    -2.9570237   -3.1874542    0.4339299 
H    -2.6418175   -2.6160852    2.0766853 
H     0.6111593    1.2675326   -1.5368364 
H     2.6869451    1.5625241    0.4458719 
H     3.1346321   -0.4060994   -1.8321783 
H     4.3416723    0.1826359   -0.6845843 
H     1.8623593   -1.4517880    0.0794731 
H     3.4705768   -2.1015163   -0.1178622 
H     2.8286036   -1.4172034    3.3160031 
H     4.2891810    3.3157456   -2.1013495 
C    -0.1634066   -0.1402230    4.0690339 
O    -1.2712627   -0.0780442    3.7420024 
O     0.9260408   -0.2199614    4.4498546 
