36
Energy = -915.0815356656
N     2.8029671   -1.1772209    0.1518585 
C     2.2760030   -0.5690319    1.3483074 
C     2.8965562    0.8271490    1.2874057 
C     2.8136844    1.1643724   -0.2001787 
C     2.9847225   -0.1871488   -0.9071938 
C     0.7577042   -0.4482213    1.4794895 
O     0.2461388   -0.0637151    2.5191317 
N     0.0445590   -0.7693171    0.3852015 
C    -1.3910367   -0.7142559    0.3482847 
C    -1.9012705    0.7368486    0.1705144 
C    -1.5610360    1.2935755   -1.2022550 
C    -3.3780289    0.8882589    0.4949697 
C    -1.8303590   -1.6268109   -0.7705825 
O    -1.0978242   -2.0545865   -1.6249575 
O    -3.1352328   -1.9062528   -0.7304354 
H     2.4056995   -2.0607881   -0.1213057 
H     2.6014360   -1.1051635    2.2439165 
H     3.9359982    0.7619309    1.6124280 
H     2.3757258    1.5358370    1.9288409 
H     3.5638667    1.8915655   -0.5088722 
H     1.8345654    1.5899080   -0.4291551 
H     3.9807824   -0.2886674   -1.3484030 
H     2.2621865   -0.2925570   -1.7258832 
H     0.5101782   -1.1213462   -0.4347346 
H    -1.7895946   -1.0942499    1.2924217 
H    -1.3345663    1.2919273    0.9234491 
H    -1.7988988    2.3573544   -1.2502573 
H    -2.1334742    0.7938435   -1.9888334 
H    -0.5006984    1.1774985   -1.4341858 
H    -3.6454556    1.9464496    0.5118498 
H    -3.6151031    0.4639384    1.4720792 
H    -4.0085258    0.3964664   -0.2465313 
H    -3.3248156   -2.4710724   -1.4905192 
C    -1.8662804    0.1480490    4.3261812 
O    -1.2886064    0.9488938    4.9246694 
O    -2.4886887   -0.6484817    3.7593971 
