26
Energy = -759.1656685978
N    -2.9673628   -0.6651171   -0.8163170 
C    -1.9801931    0.3414554   -0.4871419 
C    -2.3797319    1.2773640    0.6555607 
C    -0.7029086   -0.3806828   -0.0862840 
O    -0.7238208   -1.4305327    0.5321731 
N     0.4450315    0.2452392   -0.4154346 
C     1.7202239   -0.2683885    0.0017997 
C     2.2057956   -1.4232618   -0.8746599 
C     2.7148421    0.8635008   -0.0103475 
O     2.5189236    1.9532314   -0.4834967 
O     3.8750855    0.5159772    0.5501955 
H    -3.9024707   -0.2962968   -0.7122989 
H    -2.8594512   -1.4391594   -0.1702322 
H    -1.7728603    0.9470397   -1.3759175 
H    -3.3107734    1.7907824    0.4060253 
H    -2.5342770    0.7056200    1.5727127 
H    -1.6172615    2.0375052    0.8403463 
H     0.4257803    1.1296657   -0.8977361 
H     1.6323796   -0.6336278    1.0294311 
H     3.1591493   -1.8085015   -0.5147057 
H     2.3199382   -1.0955428   -1.9091873 
H     1.4634607   -2.2186251   -0.8360584 
H     4.4652180    1.2766021    0.4780864 
C     0.8732240    3.9430645   -1.7680386 
O    -0.0177719    3.2035621   -1.7039218 
O     1.7405217    4.6996423   -1.8461515 
