44
Energy = -1157.188526594
N    -1.9404435   -2.7274981    1.3784915 
C    -1.6748934   -2.7169633   -0.0450491 
C    -2.8440534   -2.1116082   -0.8358457 
C    -2.8705254   -0.5930666   -0.9706190 
C    -2.9582362    0.2071692    0.3199280 
C    -3.1353081    1.7045912    0.0772616 
N    -2.0413798    2.3899898   -0.5871339 
C    -0.3689819   -2.0829442   -0.5265287 
O    -0.0525727   -2.1146852   -1.7032845 
N     0.3894223   -1.4890990    0.4187986 
C     1.6403204   -0.8603075    0.1111109 
C     1.4715512    0.6650681   -0.0731230 
C     2.6297775    1.3202513   -0.7280636 
C     3.4815688    2.2731061   -0.2439230 
N     4.3702166    2.5165228   -1.2583931 
C     4.0293712    1.7167531   -2.2961161 
N     2.9856393    0.9854286   -2.0093939 
C     2.5985517   -1.1425871    1.2409074 
O     2.2555666   -1.3896657    2.3684518 
O     3.8760316   -1.0467952    0.8706362 
H    -2.0972707   -1.8107259    1.7685251 
H    -1.2386230   -3.2166740    1.9139982 
H    -1.5932812   -3.7627649   -0.3573487 
H    -3.7618958   -2.4714010   -0.3638191 
H    -2.8098269   -2.5305637   -1.8423519 
H    -3.7356643   -0.3340168   -1.5914155 
H    -1.9920811   -0.2784565   -1.5403219 
H    -2.0477343    0.0682016    0.9156783 
H    -3.7967218   -0.1557189    0.9263031 
H    -4.0404950    1.8620943   -0.5186193 
H    -3.3120098    2.2063448    1.0329681 
H    -1.8504085    1.9891540   -1.4960060 
H    -1.1891030    2.3099294   -0.0484658 
H     0.1272324   -1.5618740    1.3873633 
H     2.0197206   -1.2763622   -0.8233500 
H     0.5888951    0.7865722   -0.7035792 
H     1.2583998    1.1275902    0.8938644 
H     3.5319927    2.7839879    0.7024048 
H     5.1281152    3.1740660   -1.2381038 
H     4.5697169    1.7105773   -3.2297757 
H     4.4107481   -1.1907827    1.6619147 
C     0.7129690   -0.1561094   -3.6795790 
O     1.4133887   -0.8853896   -4.2354311 
O    -0.0105022    0.5931492   -3.1695468 
