42
Energy = -1217.778808090
N    -1.5907833   -1.5517143    0.7487113 
C    -1.3696062   -0.4475712   -0.1516109 
C    -1.9850100    0.8366127    0.4188531 
C    -3.4835140    0.8147309    0.4079487 
C    -4.1719609    1.1604488   -0.7518846 
C    -5.5562015    1.1158134   -0.7975679 
C    -6.2763020    0.7252146    0.3223277 
C    -5.6016409    0.3824993    1.4841380 
C    -4.2159688    0.4267451    1.5235998 
C     0.0685260   -0.1470815   -0.5850830 
O     0.3045912    0.7179432   -1.4102998 
N     1.0331691   -0.8894683   -0.0097392 
C     2.4206026   -0.7550668   -0.3613433 
C     3.0467090    0.4509567    0.3632477 
C     4.5243920    0.7064178    0.1326750 
C     4.9109889    0.9061110   -1.3035329 
O     4.1597863    0.9860192   -2.2377359 
O     6.2425486    1.0037248   -1.4417557 
C     3.0958728   -2.0552804   -0.0056598 
O     2.6330318   -2.8871586    0.7298972 
O     4.2910006   -2.1868252   -0.5907218 
H    -1.1800746   -1.4147870    1.6609545 
H    -1.3205245   -2.4485205    0.3749705 
H    -1.8904155   -0.6695996   -1.0886539 
H    -1.6139592    0.9751831    1.4400254 
H    -1.6166613    1.6721550   -0.1772140 
H    -3.6121707    1.4710291   -1.6280464 
H    -6.0747298    1.3914863   -1.7080624 
H    -7.3584607    0.6915845    0.2898773 
H    -6.1562045    0.0778024    2.3636411 
H    -3.6938490    0.1522571    2.4329502 
H     0.7901025   -1.6338777    0.6230127 
H     2.5110291   -0.5873636   -1.4368678 
H     2.8745777    0.3282604    1.4354173 
H     2.4701318    1.3168353    0.0368224 
H     4.8191305    1.6165354    0.6636865 
H     5.1566089   -0.0854348    0.5374054 
H     6.4136933    1.1459532   -2.3809489 
H     4.6600579   -3.0300361   -0.2984017 
C     1.8136085    2.7172445   -2.6648992 
O     1.5971175    2.2667322   -3.7054846 
O     2.0383850    3.2176803   -1.6439192 
