47
Energy = -1163.191027968
N     2.2925216    0.0767269   -2.0011550 
C     1.8769347   -0.0311842   -0.6217466 
C     2.5955586    1.0244237    0.2393738 
C     4.0542634    0.7306719    0.4132985 
C     4.9834296    1.0771113   -0.5634333 
C     6.3249124    0.7666824   -0.4044105 
C     6.7599575    0.1031622    0.7338470 
C     5.8436610   -0.2459468    1.7142066 
C     4.5025469    0.0673496    1.5518251 
C     0.3757835    0.1734233   -0.4501473 
O    -0.2416830    0.9723741   -1.1384712 
N    -0.2137658   -0.5423664    0.5245927 
C    -1.6032322   -0.3634076    0.8590215 
C    -2.5149569   -1.1088709   -0.1315890 
C    -3.9954909   -0.7635150   -0.0761779 
C    -4.2884536    0.7195267   -0.2478764 
C    -5.7520240    1.0186035   -0.5606742 
N    -6.2473962    0.5513010   -1.8438065 
C    -1.7898245   -0.8525893    2.2717796 
O    -1.0130305   -1.5647351    2.8524299 
O    -2.9333299   -0.4259199    2.8145483 
H     2.0564180   -0.7619352   -2.5138122 
H     1.7798345    0.8364777   -2.4362486 
H     2.1551514   -1.0210669   -0.2475889 
H     2.1151891    1.0724464    1.2202755 
H     2.4455650    1.9956291   -0.2392471 
H     4.6443998    1.5812132   -1.4591919 
H     7.0348760    1.0442668   -1.1743591 
H     7.8090049   -0.1366995    0.8579166 
H     6.1733763   -0.7584142    2.6100129 
H     3.7909054   -0.2014637    2.3259522 
H     0.3154313   -1.1760214    1.1020544 
H    -1.8388445    0.7020094    0.8154620 
H    -2.1333679   -0.8451394   -1.1199258 
H    -2.3614929   -2.1842936   -0.0016421 
H    -4.4454572   -1.1199186    0.8543664 
H    -4.4767362   -1.3233228   -0.8844765 
H    -4.0134282    1.2588053    0.6643840 
H    -3.6641966    1.1253981   -1.0518260 
H    -6.3892914    0.5917778    0.2208098 
H    -5.9073528    2.1002073   -0.5179496 
H    -6.2360718   -0.4581564   -1.8943424 
H    -5.6568515    0.8884319   -2.5938473 
H    -2.9879641   -0.8095610    3.6991821 
C    -1.2179939    1.1601827   -3.7670361 
O    -0.1560941    1.3924437   -4.1618377 
O    -2.2958226    0.9240819   -3.4182391 
