39
Energy = -954.3607734955
N     3.1465040    1.7047136    0.3569981 
C     2.3967171    0.5623372   -0.1096479 
C     3.1707733   -0.6140883    0.4899008 
C     4.6191292   -0.0895042    0.5801525 
C     4.5306921    1.3644273    0.1007367 
C     0.9286363    0.7085198    0.2232117 
O     0.3666456    1.7908221    0.1578394 
N     0.2658863   -0.4227797    0.5260854 
C    -1.1555798   -0.4134580    0.7557769 
C    -1.9254930   -0.3624794   -0.5750429 
C    -3.4212002   -0.0724724   -0.5089588 
C    -3.7149503    1.2448653    0.1955111 
C    -3.9798200   -0.0569271   -1.9255369 
C    -1.4884085   -1.6508551    1.5476585 
O    -0.7792595   -2.6197676    1.6258512 
O    -2.6803591   -1.5714580    2.1464648 
H     2.8374253    2.5648542   -0.0732703 
H     2.4278636    0.4691514   -1.2144348 
H     2.7896743   -0.8454693    1.4859349 
H     3.0883555   -1.5139686   -0.1208273 
H     4.9738284   -0.1333408    1.6094967 
H     5.3096589   -0.6718283   -0.0296295 
H     5.2043320    2.0315918    0.6404265 
H     4.7875446    1.4190959   -0.9701507 
H     0.7427316   -1.3031525    0.6305035 
H    -1.4074934    0.4694625    1.3455995 
H    -1.7467780   -1.3006717   -1.1102289 
H    -1.4484795    0.4333120   -1.1534753 
H    -3.9170502   -0.8769408    0.0430679 
H    -4.7783707    1.4842639    0.1327264 
H    -3.4515299    1.2142969    1.2538513 
H    -3.1564344    2.0628055   -0.2675277 
H    -5.0586641    0.1099742   -1.9191779 
H    -3.5216805    0.7454044   -2.5106180 
H    -3.7876671   -0.9999028   -2.4426504 
H    -2.8262804   -2.4127044    2.5976329 
C     0.3513378    3.3861591   -2.0776779 
O     1.4903731    3.5833221   -2.0074738 
O    -0.7853332    3.2151118   -2.2001522 
