44
Energy = -1140.206460090
N    -0.2343897   -1.0580851    2.4247906 
C    -0.9910516   -1.1235917    1.1784929 
C    -1.9190685    0.0735870    0.9529472 
C    -3.0477723   -0.1467634   -0.0403954 
C    -3.9257101    1.0824425   -0.1997301 
C    -5.0651801    0.8726829   -1.1870056 
N    -5.9367042    2.0148130   -1.4090345 
C    -0.0496409   -1.3390546   -0.0081510 
O    -0.4262399   -1.2686938   -1.1665114 
N     1.2202662   -1.6295370    0.3305312 
C     2.2101251   -1.9454461   -0.6572729 
C     2.6848100   -0.7138907   -1.4400932 
C     3.2983782    0.3554911   -0.5555354 
C     3.3312031    1.7025049   -1.2455826 
O     2.4113785    2.1067071   -1.9265496 
N     4.4437480    2.4425897   -1.0266975 
C     3.3630816   -2.6281595    0.0347619 
O     3.4952628   -2.7321543    1.2245656 
O     4.2600004   -3.0969645   -0.8421279 
H    -0.8124409   -1.3368227    3.2046057 
H     0.0579847   -0.1052283    2.6047847 
H    -1.6012117   -2.0334176    1.2170723 
H    -1.3196071    0.9348042    0.6394738 
H    -2.3497089    0.3291247    1.9277389 
H    -3.6597765   -0.9937009    0.2945424 
H    -2.6262529   -0.4325166   -1.0049319 
H    -4.3429295    1.3742589    0.7726555 
H    -3.3104426    1.9237300   -0.5378873 
H    -4.6512883    0.5706816   -2.1542064 
H    -5.6859298    0.0344001   -0.8537436 
H    -5.4008976    2.7991508   -1.7589671 
H    -6.3459667    2.3174708   -0.5340236 
H     1.4249430   -1.7574137    1.3128817 
H     1.7893222   -2.6454388   -1.3866933 
H     1.8161637   -0.3049482   -1.9514806 
H     3.3915356   -1.0343277   -2.2070654 
H     2.6741337    0.4873815    0.3346066 
H     4.2939112    0.0685424   -0.2058628 
H     4.4921874    3.3641299   -1.4233513 
H     5.2028564    2.1096740   -0.4644566 
H     4.9667589   -3.5068634   -0.3284545 
C    -0.3210869    1.3960812   -2.6758360 
O    -0.7363385    1.9534715   -1.7497633 
O     0.0617540    0.8517328   -3.6202610 
