37
Energy = -1135.652053905
N    -1.8241133    1.6926973   -1.4190180 
C    -1.1880039    0.9740852   -0.3380671 
C    -1.9058492   -0.3474473   -0.0716837 
C    -3.3141881   -0.1454698    0.4607352 
C    -3.8100385   -1.3793046    1.1826247 
O    -3.1178670   -1.9821101    1.9813212 
N    -5.0793704   -1.7535420    0.9065472 
C     0.2841768    0.6698416   -0.5975535 
O     0.7371157    0.6023509   -1.7342160 
N     1.0292659    0.4408883    0.4958558 
C     2.3806500   -0.0418722    0.4030832 
C     3.4240937    1.0569074    0.0847673 
C     4.2915117    0.7861741   -1.1360306 
O     5.4999922    0.8895981   -1.0912401 
N     3.6044856    0.4472465   -2.2466412 
C     2.7071507   -0.7399281    1.7015148 
O     1.9899578   -0.7599764    2.6668020 
O     3.8983819   -1.3300252    1.6518313 
H    -1.4903066    2.6471818   -1.4507542 
H    -1.5370152    1.2713441   -2.2959839 
H    -1.2564616    1.5795304    0.5712872 
H    -1.3468279   -0.9336075    0.6574252 
H    -1.9284512   -0.9291365   -0.9985392 
H    -3.3018973    0.6519339    1.2109662 
H    -3.9928985    0.1746018   -0.3300365 
H    -5.4669557   -2.5414020    1.3947487 
H    -5.6462640   -1.2555253    0.2478067 
H     0.6034346    0.4363555    1.4122042 
H     2.4272256   -0.7990257   -0.3856460 
H     2.8779372    1.9859537   -0.0886194 
H     4.1042436    1.2211745    0.9178575 
H     2.5906129    0.4705069   -2.2637026 
H     4.1245288    0.3073192   -3.0940119 
H     4.0595530   -1.7396600    2.5109599 
C    -0.9466257   -0.8246161    3.6338269 
O    -1.0236986    0.1825223    3.0606564 
O    -0.8557285   -1.8070369    4.2283310 
