37
Energy = -1350.260411699
N    -2.0938198    2.6300081   -0.6186860 
C    -2.3018317    1.2013209   -0.5087489 
C    -3.1231123    0.7277821   -1.7160158 
O    -2.4770423    1.0664028   -2.9214261 
C    -3.4521190   -0.7518195   -1.6448079 
C    -0.9945195    0.4228581   -0.4549199 
O    -0.2384018    0.3625992   -1.4222838 
N    -0.7073072   -0.1761488    0.7105197 
C     0.4996482   -0.9351692    0.9161825 
C     1.7062771   -0.0067982    1.1418771 
C     3.0581273   -0.6952892    1.1075387 
S     4.4396188    0.4615128    1.1552719 
C     4.3467253    1.1491532   -0.5028138 
C     0.2500668   -1.8399425    2.0979647 
O    -0.6462167   -1.6905072    2.8858463 
O     1.1489326   -2.8218801    2.1895735 
H    -1.7570794    2.8409261   -1.5503629 
H    -1.4123124    2.9650939    0.0484215 
H    -2.8815878    0.9955008    0.3976614 
H    -4.0484473    1.3103289   -1.7018295 
H    -1.5692096    0.7383717   -2.8529333 
H    -4.0027814   -0.9928949   -0.7323628 
H    -2.5435508   -1.3587896   -1.6704608 
H    -4.0642585   -1.0314897   -2.5017730 
H    -1.3582625   -0.1509049    1.4795579 
H     0.6972785   -1.5470001    0.0321415 
H     1.5787243    0.5341693    2.0826057 
H     1.6535632    0.7269412    0.3367090 
H     3.1525652   -1.3201476    0.2167849 
H     3.1991879   -1.3439019    1.9719151 
H     4.4419680    0.3640838   -1.2531713 
H     5.1851211    1.8378435   -0.6022824 
H     3.4230556    1.7041365   -0.6669043 
H     0.9366930   -3.3303862    2.9829269 
C     1.5484940   -0.8836582   -3.1534734 
O     0.9187355   -0.4875142   -4.0365796 
O     2.2060250   -1.3014451   -2.2956842 
