35
Energy = -877.0088474743
N    -2.8050586    1.9412181    1.1361771 
C    -2.4778831    0.6663643    0.5370231 
C    -3.5682936    0.2610271   -0.4472050 
C    -1.1448752    0.6885178   -0.2096174 
O    -0.7507412    1.6878930   -0.7829543 
N    -0.4615251   -0.4804572   -0.2080120 
C     0.7510512   -0.6811519   -0.9618745 
C     1.9311862   -1.1083625   -0.0724489 
C     3.1683411   -1.3968845   -0.9116594 
C     2.1999059   -0.0712968    1.0199720 
C     2.6043665    1.3091303    0.5264079 
C     0.5166204   -1.6847567   -2.0711537 
O     0.8157118   -1.5336712   -3.2218838 
O    -0.0659323   -2.8073123   -1.6109373 
H    -2.7192108    2.6585578    0.4241665 
H    -2.1234774    2.1783680    1.8462529 
H    -2.4249683   -0.0808336    1.3365303 
H    -4.5277453    0.2271186    0.0679199 
H    -3.6307164    0.9924988   -1.2550904 
H    -3.3658601   -0.7129413   -0.8953956 
H    -0.8649827   -1.2754744    0.2571085 
H     0.9810854    0.2672867   -1.4452631 
H     1.6345409   -2.0391140    0.4260863 
H     3.0177004   -2.2438837   -1.5828087 
H     4.0149150   -1.6328111   -0.2648275 
H     3.4424664   -0.5400518   -1.5292703 
H     1.3097417    0.0180814    1.6481635 
H     2.9861813   -0.4758806    1.6645634 
H     1.8127150    1.7787688   -0.0601917 
H     2.8124849    1.9656706    1.3727737 
H     3.5070599    1.2741036   -0.0860201 
H    -0.1904171   -3.3912876   -2.3691565 
C    -0.7026676    1.1890625   -3.6883400 
O     0.2428576    1.8288697   -3.8646064 
O    -1.6560540    0.5491909   -3.5359320 
