39
Energy = -1463.539914679
N     2.2171024   -0.1759867   -2.1649131 
C     1.6932255   -1.2822955   -1.3935473 
C     2.5809211   -1.5724509   -0.1805214 
C     2.5485559   -0.4742761    0.8684984 
S     3.5998905   -0.7873498    2.2987287 
C     5.2242737   -0.5701020    1.5621706 
C     0.2390384   -1.2049724   -0.9213166 
O    -0.2863415   -2.1507165   -0.3615223 
N    -0.4015956   -0.0408167   -1.1452400 
C    -1.7679480    0.1739143   -0.7556808 
C    -1.8406199    0.6290779    0.7138363 
C    -3.2186501    0.9207430    1.2763777 
C    -4.1596663   -0.2481183    1.2461981 
O    -3.8777617   -1.3764055    0.9451354 
O    -5.3976459    0.1093611    1.6217695 
C    -2.3444281    1.2033999   -1.6943818 
O    -1.6898776    1.9608122   -2.3614339 
O    -3.6816231    1.2042359   -1.6929933 
H     2.2715844    0.6872450   -1.6446473 
H     1.7155697   -0.0175464   -3.0262496 
H     1.7252414   -2.1713993   -2.0300748 
H     3.5981370   -1.7186992   -0.5472144 
H     2.2475944   -2.5036241    0.2770073 
H     1.5420100   -0.3746098    1.2822796 
H     2.8291942    0.4992204    0.4550945 
H     5.4397227   -1.3309981    0.8124817 
H     5.3231741    0.4222486    1.1194776 
H     5.9498743   -0.6653131    2.3694073 
H     0.0489499    0.6942373   -1.6645406 
H    -2.3217739   -0.7618344   -0.8531043 
H    -1.3745649   -0.1696201    1.2912357 
H    -1.2180655    1.5205433    0.8237751 
H    -3.1245294    1.2171030    2.3254302 
H    -3.7097980    1.7580982    0.7785468 
H    -5.9370538   -0.6907156    1.5959895 
H    -3.9671449    1.9032040   -2.2953054 
C    -1.6799877   -3.1841664    1.8406344 
O    -2.0854851   -4.0688421    1.2203333 
O    -1.2786352   -2.3257655    2.5086565 
