34
Energy = -1365.114363132
N     2.2969921   -1.0756790    0.0479206 
C     1.1365247   -0.3173383    0.4420983 
C     1.3970506    1.1808401    0.2700501 
C     2.6926803    1.6238187    0.9263347 
C     3.9039340    1.3198958    0.0660087 
O     3.8694672    1.3935445   -1.1453296 
N     5.0491199    1.0591659    0.7448351 
C    -0.1275792   -0.6941739   -0.3331796 
O    -0.0837856   -1.2743982   -1.4027722 
N    -1.2900396   -0.3144491    0.2409416 
C    -2.5683800   -0.5400024   -0.3855589 
C    -3.0772711   -1.9487094   -0.0549399 
S    -4.6822201   -2.3842558   -0.7530449 
C    -3.5164999    0.5139920    0.1409153 
O    -3.5177710    0.8805549    1.2873580 
O    -4.3391122    0.9879663   -0.7889707 
H     2.5179163   -0.8748034   -0.9208669 
H     2.1025486   -2.0671180    0.0956807 
H     0.9490403   -0.5128969    1.5062096 
H     1.4565971    1.4160999   -0.7962478 
H     0.5563142    1.7430354    0.6803901 
H     2.8002966    1.1838746    1.9212224 
H     2.6831794    2.7104958    1.0560912 
H     5.0082692    0.7607392    1.7013336 
H     5.8433136    0.7702330    0.2003083 
H    -1.3024606    0.1163599    1.1513576 
H    -2.4556514   -0.4430814   -1.4646788 
H    -3.1922295   -2.0418707    1.0265156 
H    -2.3181799   -2.6595421   -0.3784539 
H    -4.3120864   -2.3035343   -2.0402913 
H    -4.9387218    1.6090347   -0.3549625 
C    -1.1389871   -2.5576568   -3.6723277 
O    -0.1080887   -3.0265554   -3.8932719 
O    -2.1932161   -2.1116533   -3.4877049 
