41
Energy = -1233.820342866
N     0.8382197   -1.3561596   -0.9536683 
C     0.4246538   -0.6829718    0.2488194 
C     1.1837574    0.6424274    0.4073272 
C     2.6579982    0.4553026    0.6027439 
C     3.1656872    0.1378549    1.8574500 
C     4.5216399   -0.0685639    2.0518152 
C     5.4012789    0.0434393    0.9819888 
O     6.7392197   -0.1442269    1.1127379 
C     4.9123340    0.3647154   -0.2772012 
C     3.5548648    0.5648177   -0.4542815 
C    -1.0663583   -0.4045926    0.4213880 
O    -1.5187047   -0.0159568    1.4954646 
N    -1.8462505   -0.5888294   -0.6498746 
C    -3.2685402   -0.3915241   -0.5920013 
C    -3.6886980    1.0970919   -0.5237846 
C    -4.6721970    1.4226304    0.5910978 
O    -5.7278819    1.9782932    0.3691609 
N    -4.2552729    1.0500432    1.8185694 
C    -3.8632505   -1.0636736   -1.8054581 
O    -3.2185940   -1.5258284   -2.7100596 
O    -5.1918399   -1.0703175   -1.7585311 
H     0.7567057   -0.7935481   -1.7876104 
H     0.4158689   -2.2608430   -1.0928975 
H     0.6886632   -1.3130330    1.1042410 
H     0.7524806    1.1711873    1.2581918 
H     0.9967461    1.2551512   -0.4814947 
H     2.4904562    0.0540039    2.7017493 
H     4.8981966   -0.3112731    3.0406331 
H     6.9406837   -0.3527980    2.0266076 
H     5.6055715    0.4536892   -1.1037371 
H     3.1856106    0.8144600   -1.4427267 
H    -1.4684313   -0.9699463   -1.5033305 
H    -3.6608104   -0.9008870    0.2933275 
H    -2.7839600    1.6846618   -0.3599411 
H    -4.1431915    1.4297459   -1.4547070 
H    -3.3210696    0.6882481    1.9625307 
H    -4.8297855    1.2854662    2.6075590 
H    -5.5152257   -1.4775202   -2.5717994 
C    -0.9029189    0.3643486    4.1687150 
O     0.2205362    0.1153333    4.0480834 
O    -2.0181183    0.6204767    4.3357667 
