41
Energy = -1196.693676569
N    -0.1796960    2.2521757    2.2914113 
C    -0.4115636    1.2084130    1.3200621 
C     0.4122082   -0.0439655    1.6856475 
C     1.8580568    0.1361534    1.4002675 
C     2.4962186   -0.0811547    0.1349788 
C     2.0531419   -0.5482104   -1.1052561 
C     2.9513953   -0.6365871   -2.1498270 
C     4.2931401   -0.2688115   -1.9813623 
C     4.7627941    0.1935694   -0.7669266 
C     3.8544272    0.2849160    0.2813237 
N     4.0198288    0.7038776    1.5740281 
C     2.8216920    0.6171672    2.2380308 
C    -1.8746435    0.7942200    1.2418505 
O    -2.6042123    0.8317811    2.2161457 
N    -2.2814682    0.3330263    0.0364514 
C    -3.6077058   -0.1726144   -0.2025359 
C    -4.1825532    0.4153805   -1.4795947 
O    -3.3550632    0.1469241   -2.5870237 
C    -3.5855583   -1.6907229   -0.2864311 
O    -3.9374241   -2.3296936   -1.2449526 
O    -3.1103641   -2.2556229    0.8255756 
H    -0.4730561    3.1482113    1.9258125 
H    -0.7677180    2.0661562    3.0973849 
H    -0.0776041    1.5581970    0.3386863 
H     0.0302971   -0.9051897    1.1295542 
H     0.2378960   -0.2551525    2.7432033 
H     1.0196413   -0.8446933   -1.2474532 
H     2.6189824   -0.9964791   -3.1157005 
H     4.9749421   -0.3492086   -2.8189081 
H     5.8015375    0.4754946   -0.6411624 
H     4.8804590    1.0221729    1.9761068 
H     2.7356846    0.9261862    3.2671557 
H    -1.6684515    0.3933298   -0.7600831 
H    -4.2161353    0.1042379    0.6636458 
H    -5.1977226    0.0368799   -1.6330797 
H    -4.2323570    1.4994167   -1.3723829 
H    -3.4523140   -0.7912115   -2.7771760 
H    -3.1020190   -3.2107419    0.6833676 
C    -4.1602483   -1.1488024    3.4989876 
O    -3.2382252   -1.4978243    4.1016589 
O    -5.1124205   -0.8329341    2.9202952 
