41
Energy = -1100.923724612
N     0.8591109   -1.5971187    1.1099961 
C     0.5579610   -0.2614540    0.6562036 
C     1.3083925    0.0438791   -0.6409184 
C     2.8202468   -0.0869285   -0.5305539 
C     3.4486266    0.8370320    0.4991407 
C     4.9708055    0.8095487    0.4568975 
N     5.6515789    1.6467230    1.4291496 
C    -0.9090918    0.0941039    0.4454637 
O    -1.2604246    1.2606654    0.2880717 
N    -1.7845773   -0.9177061    0.4212379 
C    -3.1943366   -0.6946282    0.2526914 
C    -3.5963743   -0.3007773   -1.1900228 
C    -4.4536984    0.9533257   -1.2882839 
O    -5.5176199    0.9531828   -1.8722243 
N    -3.9188309    2.0360582   -0.6882972 
C    -3.9003098   -1.9578731    0.6815198 
O    -3.3427433   -2.9898415    0.9494945 
O    -5.2192787   -1.7945844    0.7138841 
H     0.7199337   -2.3038704    0.4019465 
H     0.3851850   -1.8597483    1.9608759 
H     0.8994785    0.4452765    1.4187028 
H     1.0419847    1.0571333   -0.9469551 
H     0.9356983   -0.6308358   -1.4215985 
H     3.2493184    0.1274535   -1.5150689 
H     3.0851368   -1.1210825   -0.2948427 
H     3.1004152    1.8641193    0.3395229 
H     3.1230560    0.5502789    1.5049406 
H     5.3093596    1.1071504   -0.5410008 
H     5.3183920   -0.2193282    0.5955580 
H     5.3982148    1.3710332    2.3694357 
H     5.3628337    2.6113567    1.3257747 
H    -1.4892462   -1.8621956    0.6132468 
H    -3.5091466    0.1056962    0.9289712 
H    -2.6759601   -0.1269550   -1.7499678 
H    -4.1463115   -1.0981177   -1.6857149 
H    -4.4064267    2.9104165   -0.7642240 
H    -2.9817181    2.0091557   -0.3057058 
H    -5.6163198   -2.6397397    0.9585672 
C    -0.3247086    3.8668810    0.3898295 
O     0.7785405    3.5703165    0.5733273 
O    -1.4143579    4.2089172    0.2069408 
