38
Energy = -1065.475109864
N    -2.4845134   -1.6389977    1.0628933 
C    -1.8126580   -0.8703914    0.0370571 
C    -2.7957158    0.0656732   -0.6992917 
C    -3.7996308   -0.7569887   -1.4894607 
C    -3.4955553    1.0148163    0.2615548 
C    -0.6540382   -0.0558469    0.6058738 
O    -0.5776638    0.2374458    1.7862977 
N     0.2718975    0.3446792   -0.2950076 
C     1.3477472    1.2151277    0.0825957 
C     2.5000073    0.4775423    0.7780514 
C     3.1519895   -0.5696599   -0.1197329 
C     4.1830349   -1.3597230    0.6306650 
O     4.0618948   -2.4948307    0.9999202 
O     5.2892380   -0.6327001    0.8758274 
C     1.8294700    1.9445995   -1.1461478 
O     1.4681349    1.7185720   -2.2718471 
O     2.7388195    2.8740402   -0.8478898 
H    -1.9799069   -2.4966166    1.2397479 
H    -2.4462021   -1.1125751    1.9291147 
H    -1.4081897   -1.5598114   -0.7106609 
H    -2.2048796    0.6610342   -1.4044081 
H    -4.5122879   -0.1095986   -2.0046396 
H    -4.3527887   -1.4148884   -0.8174862 
H    -3.3013438   -1.3766613   -2.2389166 
H    -2.7875660    1.6140768    0.8372436 
H    -4.1137439    0.4537674    0.9653297 
H    -4.1499911    1.6955457   -0.2859033 
H     0.1531345    0.1378572   -1.2739602 
H     0.9682338    1.9583567    0.7906159 
H     3.2396742    1.2056280    1.1117827 
H     2.0730847    0.0025163    1.6625435 
H     3.6358020   -0.0894042   -0.9747035 
H     2.4059911   -1.2731139   -0.4859440 
H     5.8852295   -1.1983467    1.3821472 
H     3.0151224    3.2828601   -1.6777721 
C    -0.0535153    0.1481439   -4.1944172 
O    -0.3326928   -0.5652582   -3.3234358 
O     0.2088796    0.8411824   -5.0779476 
