43
Energy = -1143.782973523
N     1.2656531    1.6522102    0.5202509 
C     0.7768627    0.7728487   -0.5116235 
C     1.4183401   -0.6153860   -0.3772211 
C     2.8892784   -0.6153833   -0.6624141 
C     3.3497261   -0.7167255   -1.9700502 
C     4.7036672   -0.6834560   -2.2627963 
C     5.6302756   -0.5497641   -1.2364336 
O     6.9696218   -0.5139442   -1.4607053 
C     5.1901035   -0.4522746    0.0768233 
C     3.8340633   -0.4834778    0.3499472 
C    -0.7370361    0.5833210   -0.6356976 
O    -1.2254035    0.0127004   -1.5961976 
N    -1.4830691    1.0651910    0.3793073 
C    -2.9152021    0.9541445    0.3752714 
C    -3.3826825   -0.4535266    0.8225572 
C    -4.8514542   -0.7077593    0.5292320 
C    -3.0355154   -0.7359041    2.2748789 
C    -3.4570222    2.0494365    1.2574487 
O    -2.8178336    2.6260275    2.1008906 
O    -4.7430899    2.3154424    1.0239244 
H     1.0888075    1.3148122    1.4555374 
H     0.9346536    2.6010154    0.4330355 
H     1.0813680    1.1807401   -1.4805068 
H     1.2294209   -0.9846489    0.6368715 
H     0.9005964   -1.2847284   -1.0655955 
H     2.6355805   -0.8256948   -2.7794224 
H     5.0411727   -0.7677840   -3.2912317 
H     7.1326886   -0.5932806   -2.4020503 
H     5.9200465   -0.3510178    0.8698362 
H     3.5020075   -0.4006697    1.3784062 
H    -1.0482001    1.5757470    1.1298666 
H    -3.2758978    1.1090483   -0.6449363 
H    -2.7936039   -1.1192874    0.1859200 
H    -5.0885732   -1.7573646    0.7116819 
H    -5.0924273   -0.4865216   -0.5122743 
H    -5.5043523   -0.1039220    1.1610335 
H    -3.2588286   -1.7747047    2.5222924 
H    -1.9740532   -0.5710219    2.4690139 
H    -3.6127624   -0.1057351    2.9575950 
H    -5.0087125    2.9992398    1.6524271 
C    -1.1793296    1.7056670    4.2793927 
O    -0.2779266    1.5625512    3.5647964 
O    -2.0600952    1.8341759    5.0137562 
