49
Energy = -1272.630019571
N    -3.2604840   -1.1061780   -1.9290260 
C    -2.4356722   -0.5329042   -0.8919627 
C    -3.1947189   -0.5105077    0.4489617 
C    -4.2941981    0.5071030    0.4753843 
C    -4.0784536    1.7530356    1.0568260 
C    -5.0726693    2.7197092    1.0635978 
C    -6.3039935    2.4506935    0.4859976 
C    -6.5307782    1.2116940   -0.0958103 
C    -5.5342595    0.2482381   -0.1015436 
C    -1.1435392   -1.3180563   -0.6803427 
O    -1.0998907   -2.5223537   -0.8513277 
N    -0.0861446   -0.5905001   -0.2521309 
C     1.1972847   -1.1766879    0.0734654 
C     2.2789372   -0.7265875   -0.9021358 
C     3.6021504   -1.4711118   -0.8001036 
C     4.3946154   -1.2188191    0.4824576 
N     4.6519170    0.1656180    0.7684929 
C     5.5203758    0.9274789    0.0304280 
N     6.4146031    0.5189372   -0.7869884 
N     5.4074183    2.2843403    0.2861619 
C     1.4871145   -0.7629872    1.5032854 
O     1.7818737    0.3583688    1.8341779 
O     1.3328248   -1.7598319    2.3754075 
H    -2.8995008   -0.8703086   -2.8436023 
H    -3.2091322   -2.1167711   -1.8509018 
H    -2.1952528    0.4996772   -1.1640617 
H    -2.4895012   -0.3026292    1.2581149 
H    -3.5878221   -1.5162576    0.6184036 
H    -3.1204753    1.9661284    1.5205649 
H    -4.8868199    3.6816725    1.5256612 
H    -7.0851581    3.2010741    0.4934492 
H    -7.4906786    0.9938569   -0.5484237 
H    -5.7085245   -0.7123937   -0.5684858 
H    -0.1807944    0.4077228   -0.1676651 
H     1.0642757   -2.2560035    0.0256388 
H     2.4427557    0.3483787   -0.7811115 
H     1.8665562   -0.8731199   -1.9023968 
H     3.4295876   -2.5468254   -0.9000902 
H     4.2202031   -1.1697313   -1.6490755 
H     5.3432164   -1.7610042    0.4262246 
H     3.8792728   -1.6427223    1.3470215 
H     3.9687248    0.6462516    1.3279225 
H     6.4704506   -0.4921623   -0.8063578 
H     4.4710678    2.6368104    0.3991206 
H     5.9617062    2.8256592   -0.3564470 
H     1.4903124   -1.3995795    3.2583854 
C     0.2683384   -4.9560937   -1.2949314 
O    -0.7328804   -5.4749410   -1.5414877 
O     1.2953206   -4.4748515   -1.0561150 
