34
Energy = -1042.231682273
N    -1.9693712    1.2027923   -2.1728215 
C    -1.6631128    1.0029309   -0.7812318 
C    -2.6689691    0.1019038   -0.0342961 
O    -2.4905692    0.3355855    1.3516587 
C    -2.5544896   -1.3632438   -0.3952546 
C    -0.2541772    0.4466066   -0.6566757 
O     0.3828103    0.0610088   -1.6293301 
N     0.2305909    0.4028092    0.5991318 
C     1.4265476   -0.3291854    0.9206333 
C     2.5787379    0.5578964    1.3918440 
C     3.2048494    1.5128419    0.3861884 
O     3.9829253    2.3554019    0.7858937 
N     2.9144509    1.3349442   -0.9182892 
C     1.0960517   -1.3506259    1.9874792 
O     0.0623227   -1.3829307    2.6025737 
O     2.0914112   -2.2152577    2.1828442 
H    -2.9448151    1.0429721   -2.3753390 
H    -1.3940775    0.5982646   -2.7448456 
H    -1.6786337    1.9604021   -0.2451329 
H    -3.6652486    0.4638642   -0.3259013 
H    -2.6673147   -0.4703340    1.8427773 
H    -1.5980311   -1.7739080   -0.0643458 
H    -2.6276523   -1.4961568   -1.4754710 
H    -3.3562008   -1.9391482    0.0707764 
H    -0.4457355    0.5497386    1.3405161 
H     1.7326744   -0.8837863    0.0292307 
H     2.2586956    1.1688626    2.2377219 
H     3.3964182   -0.0708926    1.7502636 
H     3.3182809    2.0015102   -1.5534548 
H     2.1425595    0.7708478   -1.2532670 
H     1.8184559   -2.8193864    2.8853628 
C    -2.0236137   -3.1147409    3.3299244 
O    -2.8004914   -2.3144292    3.0168647 
O    -1.2768663   -3.9366246    3.6462977 
