29
Energy = -947.6294784743
N    -0.8475560   -2.5090929   -0.0370680 
C    -0.1238608   -1.2709311   -0.2215118 
C    -0.9974371   -0.0776692    0.1589779 
C    -2.1985139    0.0712865   -0.7577848 
C    -2.7713375    1.4575107   -0.7243988 
O    -2.1372048    2.4700029   -0.5753650 
O    -4.0982064    1.4692571   -0.9236804 
C     1.1618435   -1.1981288    0.6005703 
O     1.3116417   -1.8386540    1.6231900 
N     2.0978333   -0.3436431    0.1186433 
C     3.2341744    0.0295375    0.9019351 
C     3.4201482    1.5215608    0.9065463 
O     2.7612177    2.3023747    0.2737642 
O     4.4392907    1.8854956    1.6896068 
H    -0.3521474   -3.2713356   -0.4812404 
H    -0.8494353   -2.7270164    0.9541483 
H     0.1362779   -1.1741306   -1.2810675 
H    -0.4095975    0.8390826    0.1247691 
H    -1.3272743   -0.2016000    1.1947822 
H    -1.8899020   -0.0906829   -1.7975136 
H    -2.9705539   -0.6664332   -0.5502825 
H    -4.3684836    2.3962468   -0.9307368 
H     1.8495481    0.2619070   -0.6487156 
H     4.1656267   -0.4213702    0.5406671 
H     3.0926199   -0.3323131    1.9229147 
H     4.5123507    2.8466394    1.6350965 
C     0.6687988    2.8628859   -1.7604275 
O     0.7130487    1.7409261   -2.0571714 
O     0.6337345    3.9838742   -1.4974948 
