31
Energy = -1271.692469002
N     1.5182591   -0.2687861    1.8054803 
C     1.7076818    0.4263015    0.5562383 
C     2.6318102   -0.3828317   -0.3855246 
O     2.9852677    0.3666539   -1.5155343 
C     3.9122477   -0.7978903    0.3016744 
C     0.4485619    0.7995924   -0.2215168 
O     0.5105740    1.4545905   -1.2564179 
N    -0.7187143    0.3438322    0.2671991 
C    -1.9782477    0.6566239   -0.3399278 
C    -2.5494159   -0.4872204   -1.1853039 
S    -1.3732663   -0.9384430   -2.4920047 
C    -2.9667285    0.9870225    0.7580646 
O    -2.7787523    0.7757790    1.9255074 
O    -4.0927960    1.5128544    0.2731352 
H     1.1281647   -1.1938944    1.6966271 
H     0.9943136    0.2537420    2.4907651 
H     2.2253181    1.3703060    0.7546153 
H     2.0744316   -1.2880105   -0.6867759 
H     2.2011049    0.8548649   -1.8057693 
H     4.4463828    0.0854224    0.6571313 
H     4.5462056   -1.3134202   -0.4202472 
H     3.7231049   -1.4543763    1.1485625 
H    -0.7329278   -0.0872551    1.1765418 
H    -1.8433824    1.5332796   -0.9779023 
H    -2.7350164   -1.3548970   -0.5491578 
H    -3.4885909   -0.1586404   -1.6273268 
H    -2.1233144   -1.9292591   -2.9964054 
H    -4.6823059    1.6731429    1.0209426 
C    -0.7463875    2.2166905   -3.7399376 
O     0.1926920    1.8704013   -4.3153607 
O    -1.7012749    2.5861375   -3.1965346 
