24
Energy = -1117.956326582
N    -1.0073029   -0.8981752    1.7805650 
C    -1.3370060   -1.1091620    0.3861343 
C    -2.7537232   -0.7189177   -0.0259399 
S    -3.1355922    1.0207318    0.3025751 
C    -0.3294560   -0.4130277   -0.5285604 
O    -0.5766560   -0.1874517   -1.7035704 
N     0.8353112   -0.1025716    0.0509504 
C     1.8785336    0.5502872   -0.6740619 
C     2.9577336    0.9946345    0.2698682 
O     2.9559407    0.8104389    1.4560624 
O     3.9417617    1.6245695   -0.3801855 
H    -1.4269484   -1.6064482    2.3655292 
H    -1.3697553    0.0025063    2.0773252 
H    -1.2170411   -2.1782502    0.1708767 
H    -2.9168741   -0.9265095   -1.0816182 
H    -3.4761557   -1.2921429    0.5571730 
H    -2.3865929    1.5117899   -0.6967390 
H     0.9395690   -0.2767140    1.0418232 
H     1.4975616    1.4177888   -1.2209317 
H     2.3263419   -0.1014892   -1.4318648 
H     4.6005659    1.8776079    0.2780308 
C    -1.1408638    0.3287013   -4.3840061 
O    -2.1980618   -0.1275920   -4.2723377 
O    -0.0938381    0.7952147   -4.5389542 
