53
Energy = -1404.124784121
N    -2.0939723   -2.3126596    0.0720122 
C    -1.4530901   -1.0269802   -0.0350190 
C    -1.7474496   -0.1823480    1.2185219 
C    -3.1017107    0.4261939    1.1901946 
C    -3.4627896    1.5900726    0.4345184 
C    -2.7456556    2.4643109   -0.3870119 
C    -3.4128951    3.5193563   -0.9763528 
C    -4.7837233    3.7199856   -0.7620972 
C    -5.5170120    2.8724800    0.0461078 
C    -4.8434784    1.8097674    0.6379285 
N    -5.2892684    0.8217194    1.4754257 
C    -4.2420570   -0.0047071    1.8020394 
C     0.0467814   -0.9947085   -0.3005234 
O     0.6014149    0.0676601   -0.5664647 
N     0.7136611   -2.1528016   -0.2214784 
C     2.1249854   -2.2316546   -0.4880887 
C     2.9760767   -1.7839584    0.7189963 
C     4.3376405   -1.1966301    0.3785378 
C     4.2560369    0.0559507   -0.4993915 
N     3.3093657    1.0433110   -0.0506505 
C     3.5485220    1.8063493    1.0727873 
N     4.6529670    1.9684108    1.6963857 
N     2.4072992    2.4385049    1.5317072 
C     2.4310057   -3.6547390   -0.8748979 
O     1.6708951   -4.5768266   -0.7366669 
O     3.6640491   -3.7897926   -1.3682170 
H    -2.0181810   -2.8820210   -0.7571426 
H    -1.8079830   -2.8379493    0.8856461 
H    -1.8867554   -0.5000411   -0.8903026 
H    -1.6220175   -0.8181290    2.1004712 
H    -0.9941239    0.6052052    1.2842338 
H    -1.6846289    2.3184059   -0.5562846 
H    -2.8706934    4.2072558   -1.6134020 
H    -5.2783613    4.5574887   -1.2385297 
H    -6.5759784    3.0337861    0.2100508 
H    -6.2279514    0.7246847    1.8114184 
H    -4.3928564   -0.8549576    2.4481011 
H     0.2170256   -3.0183401   -0.0822468 
H     2.3491975   -1.5853073   -1.3406966 
H     3.0861480   -2.6203980    1.4142048 
H     2.3889451   -1.0273915    1.2420518 
H     4.8260391   -0.9414058    1.3219425 
H     4.9699927   -1.9365025   -0.1177794 
H     5.2462804    0.5117528   -0.5757041 
H     3.9797605   -0.2118261   -1.5220714 
H     2.3415225    0.7625695   -0.1696312 
H     5.3873375    1.3889328    1.3088012 
H     2.6215811    3.1603217    2.1993006 
H     1.7541685    2.7270456    0.8204820 
H     3.7950718   -4.7277523   -1.5568956 
C     1.4482144    2.2098614   -2.2940267 
O     1.0145167    2.9844296   -1.5508828 
O     1.8771976    1.4597997   -3.0618424 
