30
Energy = -927.7651810605
N    -3.5344647    0.2041875   -1.7084775 
C    -2.8668455    0.1890284   -0.4258407 
C    -3.5611181   -0.7970945    0.5061989 
C    -1.3933073   -0.2028767   -0.5292166 
O    -0.9886793   -0.9573032   -1.3966661 
N    -0.5813153    0.3204767    0.4134819 
C     0.7855460   -0.0986025    0.5652421 
C     1.6985645    0.4321127   -0.5415555 
C     2.9375594   -0.4231746   -0.7123105 
O     2.9308003   -1.6179443   -0.5023533 
N     4.0341698    0.2334813   -1.1521553 
C     1.2371671    0.3468456    1.9358783 
O     0.5273166    0.8922433    2.7402217 
O     2.5236309    0.0809209    2.1567839 
H    -3.3484392   -0.6774763   -2.1743677 
H    -3.1295667    0.9163240   -2.3032970 
H    -2.9343584    1.1927398    0.0067485 
H    -3.4960494   -1.8066400    0.0946438 
H    -3.1054288   -0.8051828    1.4977036 
H    -4.6130943   -0.5295579    0.5998468 
H    -0.9617701    0.8606343    1.1749609 
H     0.8607748   -1.1922795    0.5266557 
H     1.1421178    0.3495132   -1.4784278 
H     1.9450143    1.4843983   -0.3844729 
H     4.8418002   -0.3088802   -1.4028752 
H     4.0044683    1.2033229   -1.4021157 
H     2.7306662    0.3864869    3.0486199 
C     0.9915225   -2.6748306   -2.5140156 
O     0.6314725   -3.5572634   -1.8616986 
O     1.3611264   -1.8185668   -3.2014073 
