44
Energy = -1307.096855442
N     0.9615794   -2.0306386    0.0683983 
C     0.1459833   -0.8819692    0.3982959 
C     0.7253806    0.3929519   -0.2177156 
C     2.0939535    0.7158240    0.2808591 
C     3.3473466    0.1818178   -0.1739945 
C     3.7092059   -0.7356732   -1.1661220 
C     5.0456670   -1.0221169   -1.3526416 
C     6.0365425   -0.4125858   -0.5697081 
C     5.7114631    0.4967646    0.4165994 
C     4.3634535    0.7851215    0.6024725 
N     3.7508097    1.6351188    1.4835914 
C     2.3947049    1.5942251    1.2839508 
C    -1.2812499   -1.2241374   -0.0175665 
O    -1.7380136   -2.3314792    0.1901217 
N    -2.0120018   -0.2300000   -0.5749391 
C    -3.3766613   -0.4399593   -0.9804982 
C    -4.3772824    0.1905570   -0.0683587 
C    -5.4641574   -0.3117915    0.5916785 
N    -6.0894955    0.6710928    1.3057702 
C    -5.3945339    1.7571553    1.0848262 
N    -4.3505816    1.5249456    0.2538854 
C    -3.5664658    0.1284976   -2.3748725 
O    -2.9409184    1.0598714   -2.8145922 
O    -4.5373274   -0.4847892   -3.0426125 
H     0.4590926   -2.8715367    0.3237224 
H     1.8359975   -2.0056610    0.5743154 
H     0.0673619   -0.7065915    1.4861409 
H     0.7437489    0.2803390   -1.3064211 
H     0.0766460    1.2395359    0.0270659 
H     2.9465245   -1.2267468   -1.7570446 
H     5.3389916   -1.7327764   -2.1153332 
H     7.0765699   -0.6615101   -0.7409345 
H     6.4784937    0.9675992    1.0199637 
H     4.2193035    2.2131630    2.1545427 
H     1.7327369    2.2087174    1.8743525 
H    -1.5687704    0.6247061   -0.8606326 
H    -3.5593365   -1.5147772   -0.9928780 
H    -5.8184251   -1.3304156    0.5891804 
H    -5.5972877    2.7326517    1.4990865 
H    -3.6568972    2.1915364   -0.0426852 
H    -4.6430961   -0.0303735   -3.8883423 
C    -1.6439687    3.4666293   -2.0341948 
O    -1.8610605    3.1699701   -0.9314563 
O    -1.4128994    3.7883908   -3.1148732 
