36
Energy = -803.0050927662
N     2.2640567   -2.4718650   -0.7871895 
C     2.2024218   -1.1263100   -0.2416474 
C     3.3646229   -0.3225210   -0.8576518 
O     4.5459330   -1.0620334   -0.6892324 
C     3.5604169    1.0380000   -0.2343608 
C     0.8690954   -0.4603824   -0.5445641 
O     0.2968842   -0.6622178   -1.6018296 
N     0.3790553    0.3511386    0.4182878 
C    -0.7699115    1.1914514    0.2053845 
C    -2.0161699    0.6967907    0.9509633 
C    -2.5228802   -0.6659450    0.4907026 
C    -3.5944085   -1.1604966    1.4519692 
C    -3.0495066   -0.6260085   -0.9360159 
C    -0.4285853    2.5864663    0.6720436 
O     0.5087446    2.8613854    1.3731055 
O    -1.3150093    3.4909439    0.2453287 
H     1.7936105   -3.1297780   -0.1814592 
H     1.7655874   -2.4752713   -1.6716581 
H     2.3740964   -1.1751686    0.8377456 
H     3.1374336   -0.2044454   -1.9290711 
H     4.2831483   -1.9804347   -0.8454914 
H     2.7000384    1.6876539   -0.3972165 
H     4.4365971    1.5154639   -0.6729636 
H     3.7329392    0.9451652    0.8406286 
H     0.9723150    0.6001495    1.1940042 
H    -0.9706719    1.2173863   -0.8674627 
H    -1.7765330    0.6573634    2.0189895 
H    -2.8112330    1.4382042    0.8284454 
H    -1.6821903   -1.3675341    0.5262872 
H    -3.2167868   -1.2278055    2.4748070 
H    -4.4534408   -0.4832540    1.4570990 
H    -3.9553643   -2.1485885    1.1602263 
H    -3.4450736   -1.6017269   -1.2250328 
H    -3.8621137    0.1010911   -1.0270406 
H    -2.2662152   -0.3704359   -1.6499628 
H    -1.0509027    4.3436683    0.6130324 
