36
Energy = -1023.316150637
N     2.1446575   -2.3870704   -0.8910287 
C     1.9308738   -1.2420480   -0.0170010 
C     3.0118784   -0.2080057   -0.0154242 
C     3.9858963    0.1024311    0.8966523 
N     4.7881855    1.1046411    0.4257791 
C     4.3077243    1.4035216   -0.7548256 
N     3.2382521    0.6373897   -1.0714445 
C     0.6415734   -0.5725147   -0.4717678 
O     0.4888999   -0.2817895   -1.6505921 
N    -0.2604893   -0.3038411    0.4816172 
C    -1.4643599    0.4540829    0.2374285 
C    -2.7191368   -0.4416313    0.2054009 
C    -2.6024539   -1.4614842   -0.9163242 
C    -3.9922542    0.3784850    0.0598498 
C    -1.5659214    1.4767450    1.3475576 
O    -1.2828777    1.2432866    2.4923882 
O    -2.0131736    2.6621970    0.9275683 
H     3.1046875   -2.6968436   -0.8182260 
H     1.9872855   -2.0965795   -1.8489802 
H     1.8230763   -1.5999905    1.0104608 
H     4.1487628   -0.3477539    1.8639304 
H     4.6900579    2.1634463   -1.4185496 
H     2.6571981    0.7066013   -1.8925141 
H    -0.0470051   -0.5132469    1.4435067 
H    -1.3583093    0.9557105   -0.7249136 
H    -2.7491776   -0.9705501    1.1650874 
H    -2.5757059   -0.9638300   -1.8882426 
H    -3.4626957   -2.1328029   -0.9009632 
H    -1.7012258   -2.0676841   -0.8269103 
H    -4.1570063    1.0506316    0.9030048 
H    -3.9645121    0.9826981   -0.8503085 
H    -4.8550751   -0.2856248   -0.0069184 
H    -2.0687328    3.2365638    1.7026866 
C     0.2422801    1.8995910   -3.3323623 
O     1.3958759    1.8958259   -3.4396564 
O    -0.9089747    1.9416403   -3.2487294 
