34
Energy = -893.0358864036
N     0.6294712    1.5943933   -0.7851964 
C     0.5108569    0.8867592    0.4686234 
C    -0.5902089   -0.1679495    0.3819583 
C    -1.9779872    0.4202321    0.1994902 
C    -3.0493732   -0.6465850    0.0585997 
C    -4.4436408   -0.0723457   -0.0984840 
N    -5.4285438   -1.1384409   -0.2064451 
C     1.7691418    0.2256740    1.0336382 
O     1.7861376   -0.2578616    2.1514203 
N     2.8560026    0.1960336    0.2315186 
C     4.0662048   -0.4120103    0.6862873 
C     5.1519444   -0.2405940   -0.3309530 
O     5.0318892    0.3295619   -1.3838023 
O     6.2926050   -0.8058484    0.0678068 
H     0.8195483    0.9829980   -1.5666717 
H     1.3183967    2.3313356   -0.7702315 
H     0.2179850    1.6099953    1.2378838 
H    -0.3592586   -0.8430884   -0.4528133 
H    -0.5533185   -0.7707148    1.2913203 
H    -1.9839246    1.0783782   -0.6733487 
H    -2.2074850    1.0547160    1.0635209 
H    -3.0416464   -1.3120019    0.9270588 
H    -2.8232780   -1.2762623   -0.8114174 
H    -4.4485152    0.6244572   -0.9516741 
H    -4.6872681    0.5217186    0.7879158 
H    -6.3623094   -0.7592950   -0.2873635 
H    -5.2632140   -1.6833667   -1.0432626 
H     2.8483917    0.6224313   -0.6804353 
H     3.9367104   -1.4816437    0.8829614 
H     4.3986408    0.0181088    1.6365672 
H     6.9437588   -0.6611149   -0.6299730 
C     3.9491191    1.7810891   -3.5822619 
O     2.9263105    1.7924309   -3.0371839 
O     4.9544858    1.7858108   -4.1486968 
