32
Energy = -688.5379658008
N    -0.6975216    1.6482405    0.0811622 
C    -0.7258646    0.2555947    0.5076594 
C    -1.3926392   -0.6321036   -0.5472163 
C    -2.9114707   -0.7996738   -0.4375195 
C    -3.3047782   -1.5834062    0.8070260 
C    -3.6851678    0.5093988   -0.5161714 
C     0.6841076   -0.2730492    0.7561977 
O     0.8724708   -1.3190015    1.3549026 
N     1.6702963    0.4830985    0.2470896 
C     3.0487016    0.1177204    0.3901574 
C     3.4837685   -0.9436262   -0.6207057 
C     3.8892787    1.3623667    0.2548464 
O     3.4870459    2.4338874   -0.1102390 
O     5.1704020    1.1326972    0.5707964 
H    -0.6330722    2.2777547    0.8694767 
H    -1.5300234    1.8898172   -0.4338528 
H    -1.2417884    0.1099250    1.4644806 
H    -0.9450744   -1.6257876   -0.4802479 
H    -1.1300075   -0.2290539   -1.5316236 
H    -3.2011666   -1.4013895   -1.3069184 
H    -2.7728369   -2.5348875    0.8615028 
H    -3.0769130   -1.0274834    1.7198603 
H    -4.3769976   -1.7906420    0.8121398 
H    -4.7603552    0.3203650   -0.5406374 
H    -3.4911179    1.1397249    0.3560534 
H    -3.4323259    1.0777292   -1.4156824 
H     1.4156716    1.3490885   -0.2083036 
H     3.1985544   -0.2887977    1.3949972 
H     3.3619277   -0.5728147   -1.6398214 
H     2.8563246   -1.8234756   -0.4864120 
H     4.5251951   -1.2235374   -0.4657459 
H     5.6454764    1.9614209    0.4336488 
