37
Energy = -1404.399156142
N     0.6685516    1.2338687   -1.5394510 
C     1.0578860   -0.1485016   -1.3093405 
C     2.5436986   -0.4066524   -1.0608689 
C     3.0620257    0.2357121    0.2125898 
S     4.8397253   -0.0323973    0.3423600 
C     5.1458040    0.7822416    1.9123326 
C     0.2110248   -0.7781770   -0.2109777 
O     0.4763422   -1.8640137    0.2789376 
N    -0.8795770   -0.0763437    0.1508567 
C    -1.8371923   -0.6758818    1.0345947 
C    -2.9820362    0.2819401    1.3611166 
C    -3.7194645    0.9992623    0.2356476 
O    -4.3136665    2.0288242    0.4813204 
N    -3.6764464    0.4496698   -0.9958608 
C    -2.3345145   -1.9970927    0.4626769 
O    -2.5399579   -2.2056620   -0.7082224 
O    -2.5597444   -2.8940569    1.4133815 
H     0.9144702    1.5257816   -2.4741546 
H     1.1368277    1.8589989   -0.8963761 
H     0.7745267   -0.7151519   -2.2030137 
H     2.7015066   -1.4847163   -1.0065828 
H     3.1061705   -0.0345877   -1.9216645 
H     2.5686904   -0.2056205    1.0819495 
H     2.8779969    1.3150520    0.2206390 
H     6.2111072    0.6892834    2.1206708 
H     4.5882421    0.3038592    2.7185529 
H     4.8899279    1.8418363    1.8653284 
H    -1.0956769    0.7393107   -0.4047178 
H    -1.3414558   -0.9336438    1.9727429 
H    -2.6019814    1.0751080    2.0050905 
H    -3.7360617   -0.2490028    1.9477602 
H    -3.2670550   -0.4569982   -1.1773364 
H    -4.2170293    0.9002691   -1.7133123 
H    -2.8383648   -3.7130578    0.9830111 
C    -0.2922566   -4.0437028   -1.4606089 
O     0.0843357   -3.4184233   -2.3577882 
O    -0.6700596   -4.7037735   -0.5889384 
