30
Energy = -1196.504755830
N     1.8229009    2.0861905   -0.0475948 
C     1.1220200    0.8329520   -0.2249287 
C     1.6870156   -0.2277601    0.7213828 
C     3.1477552   -0.5055832    0.4398046 
C     3.7761971   -1.4147451    1.4504024 
O     3.2619492   -1.8122753    2.4607142 
O     5.0326343   -1.7496925    1.1028170 
C    -0.3754321    0.9621842    0.0406880 
O    -0.8162437    1.7784893    0.8286743 
N    -1.1619025    0.0920174   -0.6338288 
C    -2.5607792   -0.0251430   -0.3577491 
C    -3.4682223    0.6561139   -1.3947060 
S    -3.0270230    2.3705847   -1.7475326 
C    -2.9212315   -1.4932766   -0.2924281 
O    -2.2265139   -2.3820973   -0.7047461 
O    -4.1306173   -1.6870245    0.2404335 
H     1.5955775    2.7212521   -0.8016743 
H     1.4715260    2.5241082    0.7978918 
H     1.2689768    0.4998936   -1.2584190 
H     1.1052533   -1.1495945    0.6441077 
H     1.5701833    0.1220604    1.7499889 
H     3.2934455   -0.9466310   -0.5506305 
H     3.7098409    0.4325491    0.4303255 
H     5.3690407   -2.3182838    1.8061214 
H    -0.7429333   -0.6440836   -1.1783351 
H    -2.7466327    0.4341191    0.6161675 
H    -3.3919718    0.1408093   -2.3552089 
H    -4.5023550    0.5859874   -1.0591672 
H    -2.8552752    2.7532888   -0.4724395 
H    -4.3074830   -2.6361093    0.2154690 
