39
Energy = -1178.504218650
N    -2.2251004    0.1524723    1.7446640 
C    -2.5670211    0.2518420    0.3465572 
C    -2.6215657    1.7128425   -0.0691596 
C    -3.8188840    2.4034931    0.5148237 
O    -4.8905985    1.8976145    0.7032734 
O    -3.5757006    3.6998035    0.7734462 
C    -1.7016666   -0.5134013   -0.6598848 
O    -1.8348740   -0.3605179   -1.8627663 
N    -0.8074676   -1.3711853   -0.1341692 
C     0.0973909   -2.1125098   -0.9604189 
C     1.1960925   -1.2282694   -1.5974570 
C     1.9538885   -0.4255328   -0.5852857 
C     3.0681913   -0.9496239    0.0636690 
C     3.7344970   -0.2179756    1.0360864 
C     3.2924173    1.0522226    1.3755376 
C     2.1874597    1.5887828    0.7302356 
C     1.5268630    0.8550655   -0.2423165 
C     0.6951757   -3.2167043   -0.1261466 
O     0.5565878   -3.3363000    1.0623531 
O     1.4229819   -4.0614963   -0.8619537 
H    -2.4435629   -0.7427389    2.1533738 
H    -1.2638860    0.3909939    1.9436403 
H    -3.5780466   -0.1480537    0.2208330 
H    -1.7117822    2.2395942    0.2246608 
H    -2.7026519    1.7741587   -1.1576103 
H    -4.4024430    4.0722681    1.1044280 
H    -0.6903165   -1.4354322    0.8638091 
H    -0.4588637   -2.5729267   -1.7822406 
H     1.8646435   -1.8740586   -2.1680762 
H     0.6836095   -0.5698938   -2.2985514 
H     3.4248383   -1.9390235   -0.2016742 
H     4.6008030   -0.6419663    1.5288722 
H     3.8128085    1.6251756    2.1331257 
H     1.8424027    2.5844117    0.9818761 
H     0.6730728    1.2814466   -0.7570696 
H     1.7793197   -4.7269728   -0.2600624 
C     1.5516657   -1.5840890    3.1593124 
O     0.6634293   -0.8728511    2.9433130 
O     2.4371894   -2.2836871    3.4035322 
