36
Energy = -874.1244393684
N     2.5546939   -1.5313372   -0.8552177 
C     2.1566699   -1.2900401    0.5283189 
C     2.6891724    0.0198847    0.9908931 
C     3.4499641    0.3819964    2.0680231 
N     3.6685611    1.7320815    2.0749532 
C     3.0486584    2.1896618    1.0185823 
N     2.4387953    1.1957712    0.3285561 
C     0.6273202   -1.2783526    0.6591864 
O     0.0802860   -1.5233795    1.7139362 
N    -0.0133594   -0.9193810   -0.4751345 
C    -1.4443399   -0.9101776   -0.5713031 
C    -2.0366448    0.5125760   -0.6733976 
C    -1.5275045    1.2346291   -1.9114772 
C    -1.7577674    1.3225095    0.5888405 
C    -2.4281820    0.7910522    1.8437842 
C    -1.8598921   -1.7488010   -1.7565442 
O    -1.1123443   -2.1905406   -2.5874677 
O    -3.1852464   -1.9337241   -1.7962794 
H     2.3885304   -2.4941803   -1.1192495 
H     3.5414312   -1.3446930   -0.9712111 
H     2.4997648   -2.0476881    1.2400396 
H     3.8412229   -0.2621197    2.8396172 
H     3.0113337    3.2209510    0.7034071 
H     1.9059792    1.2825782   -0.5186967 
H     0.5361266   -0.9523029   -1.3229126 
H    -1.8356021   -1.3861580    0.3313146 
H    -3.1198298    0.3845865   -0.7634296 
H    -1.7368400    0.6838090   -2.8311593 
H    -1.9939463    2.2168796   -1.9977215 
H    -0.4466361    1.3893314   -1.8573850 
H    -2.0943455    2.3467327    0.4001119 
H    -0.6755588    1.3839381    0.7448090 
H    -2.2730401    1.4740554    2.6803679 
H    -2.0183314   -0.1753909    2.1393549 
H    -3.5064281    0.6844620    1.6983732 
H    -3.3726714   -2.4592196   -2.5838830 
