40
Energy = -971.5884318383
N     3.5192962   -0.0824245   -1.4229711 
C     2.6306279   -0.4130713   -0.3336880 
C     3.3692749   -0.2875280    0.9992532 
C     4.5835873   -1.2002129    1.0796447 
C     5.7534214   -0.8217437    0.2148395 
O     6.4260725   -1.5917348   -0.4134445 
O     6.0499878    0.4893411    0.3035576 
C     1.3974046    0.4893080   -0.2886404 
O     1.4463756    1.6501628   -0.6509696 
N     0.2816391   -0.0758337    0.2210600 
C    -0.9579263    0.6543784    0.3603670 
C    -1.8066827    0.5284302   -0.9106357 
C    -3.0900598    1.3457017   -0.9663778 
C    -4.2777359    0.8113723   -0.1692135 
C    -4.6567987   -0.6289675   -0.4755973 
N    -4.8824464   -0.8201766   -1.9002282 
C    -1.6452436    0.0898117    1.5813810 
O    -1.7596229   -1.0879688    1.7987476 
O    -2.1048065    1.0324712    2.4100698 
H     3.1286573   -0.3791263   -2.3069684 
H     3.6076045    0.9270885   -1.4681564 
H     2.3134292   -1.4549552   -0.4544572 
H     3.6718445    0.7530892    1.1376549 
H     2.6834556   -0.5314126    1.8143964 
H     4.3260882   -2.2295906    0.8293672 
H     4.9600050   -1.2014293    2.1079011 
H     6.8210275    0.6273835   -0.2589365 
H     0.2617261   -1.0575001    0.4423704 
H    -0.7091331    1.7020024    0.5287469 
H    -2.0163553   -0.5291585   -1.0887252 
H    -1.1484421    0.8557803   -1.7180992 
H    -3.3857610    1.3981418   -2.0154610 
H    -2.8813869    2.3731760   -0.6515586 
H    -4.1044938    0.9030614    0.9050108 
H    -5.1398014    1.4548889   -0.3791279 
H    -3.8461863   -1.2965003   -0.1714975 
H    -5.5215388   -0.8973022    0.1491227 
H    -5.0789532   -1.7897042   -2.1068579 
H    -5.6860445   -0.2864178   -2.2068462 
H    -2.5321062    0.5773695    3.1475671 
