38
Energy = -821.2002736750
N     2.4608466    2.0809485   -1.0411549 
C     2.0146803    0.7002050   -1.1422082 
C     3.2833141   -0.1682844   -1.3481563 
C     4.4069409    0.7276179   -0.8437385 
C     3.9048872    2.1057669   -1.2567991 
C     1.2735186    0.2969192    0.1256191 
O     1.3706960    0.9237408    1.1660439 
N     0.5187193   -0.8147754    0.0125254 
C    -0.1457656   -1.4007488    1.1454595 
C    -1.4981626   -0.7455193    1.4539349 
C    -2.5197662   -0.9210444    0.3419476 
C    -3.8616896   -0.2406552    0.5930559 
C    -3.8766879    1.2709278    0.4212188 
N    -3.1305845    1.9530744    1.4680858 
C    -0.2958935   -2.8763781    0.8754351 
O    -0.0387115   -3.4171732   -0.1681997 
O    -0.7770604   -3.5340745    1.9356979 
H     2.2546992    2.3798741   -0.0936477 
H     1.3304460    0.5648523   -1.9877782 
H     3.4136003   -0.3741849   -2.4128679 
H     3.2214498   -1.1280247   -0.8334467 
H     4.4784706    0.6697286    0.2451937 
H     5.3788685    0.4677563   -1.2662882 
H     4.3560234    2.9243050   -0.6945651 
H     4.1199223    2.2807335   -2.3173632 
H     0.5439012   -1.3633874   -0.8319108 
H     0.4916280   -1.2790807    2.0264151 
H    -1.8810143   -1.1729840    2.3844119 
H    -1.3156173    0.3127916    1.6352475 
H    -2.1022821   -0.5416427   -0.5968285 
H    -2.7015547   -1.9902026    0.1822170 
H    -4.5966110   -0.6562028   -0.1027918 
H    -4.2240400   -0.4942334    1.5970957 
H    -4.9243683    1.6006234    0.3501973 
H    -3.4089899    1.5197059   -0.5366366 
H    -3.0611786    2.9431014    1.2774699 
H    -3.5999008    1.8553854    2.3592052 
H    -0.8627335   -4.4597616    1.6764041 
