27
Energy = -905.4623407621
N    -0.9241919    0.4014257   -1.8372333 
C    -0.7817233    1.0033467   -0.5258268 
C    -1.8950073    0.5240607    0.3513313 
C    -2.0304059    0.2832097    1.6920489 
N    -3.3047737   -0.1287253    1.9771882 
C    -3.9355408   -0.1363358    0.8318417 
N    -3.1268857    0.2536445   -0.1826605 
C     0.5453866    0.8265446    0.2182240 
O     0.8073495    1.4924540    1.2008168 
N     1.3968502   -0.0977918   -0.2724028 
C     2.6495511   -0.3305944    0.3767276 
C     3.4849289   -1.2769563   -0.4301833 
O     3.1516523   -1.7750916   -1.4737313 
O     4.6605623   -1.5127918    0.1518837 
H    -0.2485603    0.7501600   -2.5012098 
H    -0.8645797   -0.6073184   -1.8107493 
H    -0.8724298    2.0890275   -0.6536909 
H    -1.2828684    0.4073478    2.4577241 
H    -4.9655911   -0.4182845    0.6774176 
H    -3.3377357    0.3128797   -1.1637427 
H     1.1948962   -0.6187510   -1.1099401 
H     2.5192038   -0.7483254    1.3807723 
H     3.2021098    0.6033604    0.5182596 
H     5.1448545   -2.1283267   -0.4126575 
C     1.6285859   -2.5055742   -3.7609785 
O     0.7643193   -1.8374299   -3.3718417 
O     2.4706868   -3.1770498   -4.1735507 
