33
Energy = -1116.243892486
N    -2.1988138   -0.0719817    1.0661903 
C    -1.9503062   -0.8705429   -0.1152152 
C    -2.5955858   -0.3915493   -1.4113224 
C    -2.0799144    0.9391197   -1.8653284 
O    -1.2968078    1.6349760   -1.2627920 
O    -2.5979875    1.3074769   -3.0374932 
C    -0.4518349   -1.0679326   -0.3545833 
O    -0.0263727   -1.4084048   -1.4470086 
N     0.3225072   -0.8620963    0.7177645 
C     1.7503551   -0.9631919    0.6442876 
C     2.3801882    0.2244098   -0.1097690 
C     2.2323609    1.5117166    0.6734445 
O     2.9934152    1.7827892    1.5864614 
N     1.2100545    2.3105858    0.3128983 
C     2.2963057   -1.0387445    2.0518615 
O     1.6397935   -0.8215568    3.0360698 
O     3.5879587   -1.3467823    2.0625146 
H    -3.1437744   -0.1824440    1.4024914 
H    -2.0323813    0.9076247    0.8774480 
H    -2.3374049   -1.8756470    0.0818687 
H    -3.6804929   -0.3143999   -1.2999457 
H    -2.4077820   -1.1043432   -2.2159901 
H    -2.2176342    2.1657416   -3.2637276 
H    -0.1095114   -0.5746842    1.5852300 
H     2.0240385   -1.8733909    0.1049863 
H     3.4458570    0.0376667   -0.2321294 
H     1.9084966    0.2719287   -1.0910008 
H     0.5038559    2.0230733   -0.3452662 
H     1.0396907    3.1248251    0.8772360 
H     3.9226009   -1.1721926    2.9538661 
C     3.2151338    1.2536605    4.4522228 
O     4.1111513    0.5297266    4.3115372 
O     2.3407605    1.9806740    4.6422226 
