44
Energy = -1157.191059905
N     2.0064177   -3.6209819    0.9325943 
C     2.1747625   -2.2003911    0.7072920 
C     3.4189943   -1.9808163   -0.1709990 
C     3.7613007   -0.5557220   -0.4274350 
C     4.6201862    0.2520452    0.2704138 
N     4.5711683    1.4717013   -0.3533893 
C     3.6990833    1.3625237   -1.3807525 
N     3.1951389    0.1584187   -1.4559222 
C     0.9710982   -1.5711221    0.0138957 
O     0.3441800   -2.1718791   -0.8406374 
N     0.6770417   -0.3086302    0.3876164 
C    -0.2109932    0.4996609   -0.4024823 
C    -1.6661441    0.3595615    0.0713934 
C    -2.7166513    0.9458138   -0.8578598 
C    -4.1365985    0.5610305   -0.4618964 
C    -4.5957060    1.1527166    0.8658302 
N    -5.9625237    0.8494417    1.2539404 
C     0.2745939    1.9245347   -0.3305626 
O     1.0004169    2.3656418    0.5245189 
O    -0.2070702    2.6824447   -1.3190813 
H     1.2988459   -3.7736274    1.6403072 
H     1.6330800   -4.0273949    0.0804805 
H     2.3410244   -1.7089529    1.6706051 
H     3.2477483   -2.4809432   -1.1275089 
H     4.2464962   -2.4901958    0.3246701 
H     5.2610067    0.0634141    1.1152686 
H     5.0580621    2.3026020   -0.0699787 
H     3.4706046    2.1866012   -2.0384972 
H     1.2778424    0.1708243    1.0382251 
H    -0.1489527    0.1632627   -1.4411364 
H    -1.8297582   -0.7174920    0.1592908 
H    -1.7441497    0.7761094    1.0794208 
H    -2.5193073    0.5944976   -1.8751682 
H    -2.6338682    2.0355237   -0.8931898 
H    -4.8285653    0.8912580   -1.2442931 
H    -4.2215628   -0.5312132   -0.4177768 
H    -4.4873480    2.2422259    0.8283796 
H    -3.9420297    0.8148711    1.6743783 
H    -6.6076042    1.1431727    0.5312030 
H    -6.0841277   -0.1499921    1.3571315 
H     0.1178783    3.5791338   -1.1687157 
C     2.9459931    1.9450625    2.6297784 
O     2.3691845    0.9855893    2.9234610 
O     3.5449525    2.8976950    2.3655499 
