40
Energy = -1158.635718441
N     1.7211502   -0.3105157   -2.5777053 
C     0.8072762   -0.3884458   -1.4644683 
C     1.2149984    0.6119262   -0.3633159 
C     2.4166765    0.1576905    0.4076743 
C     2.2583620   -0.4711903    1.6392819 
C     3.3549287   -0.9302751    2.3534038 
C     4.6326183   -0.7643855    1.8411506 
C     4.8027068   -0.1375783    0.6149284 
C     3.7041732    0.3195299   -0.0962578 
C    -0.6345033   -0.0931565   -1.8598748 
O    -0.9279173    0.5887158   -2.8260871 
N    -1.5878879   -0.6017980   -1.0425956 
C    -2.9549997   -0.1864829   -1.2030170 
C    -3.8607746   -0.8317493   -0.1547635 
C    -3.4795139   -0.7699054    1.3208807 
O    -3.9608298   -1.5738025    2.0901267 
N    -2.5929283    0.1785281    1.7055260 
C    -3.0583791    1.3326103   -1.1927864 
O    -2.4009453    2.0611749   -0.4892256 
O    -3.9950278    1.7659318   -2.0235085 
H     1.4743235    0.4978287   -3.1386207 
H     1.6178139   -1.1164647   -3.1796069 
H     0.8542028   -1.3964886   -1.0409382 
H     1.3965589    1.5749885   -0.8452445 
H     0.3784040    0.7589330    0.3242741 
H     1.2606978   -0.5964393    2.0486049 
H     3.2110997   -1.4130779    3.3125693 
H     5.4925563   -1.1181794    2.3967117 
H     5.7983549   -0.0030414    0.2093377 
H     3.8373246    0.7950137   -1.0593841 
H    -1.3090863   -1.0033263   -0.1632350 
H    -3.3087110   -0.4996075   -2.1869906 
H    -3.9605249   -1.8936321   -0.3812063 
H    -4.8651873   -0.4099082   -0.2409505 
H    -2.4391178    0.2666075    2.6956960 
H    -2.3432789    0.9531908    1.1029874 
H    -3.9737352    2.7322097   -2.0156773 
C    -0.8395452    3.5944812   -2.7118007 
O     0.2469645    3.4788216   -2.3370671 
O    -1.9212997    3.7470671   -3.0954663 
