34
Energy = -1025.935215966
N     5.1672555    1.3066013   -0.5077876 
C     4.3273695    0.1534562   -0.3152907 
C     2.8633761    0.4680776   -0.0345853 
O     2.3817788    1.5629565   -0.2729959 
N     2.1293266   -0.5461651    0.4622702 
C     0.7193019   -0.4034484    0.7087906 
C    -0.0968075   -0.5377000   -0.5973112 
C    -1.5440693   -0.1784155   -0.4627190 
C    -2.5378064   -1.1511500   -0.4655164 
C    -3.8741419   -0.8213046   -0.3218589 
C    -4.2397518    0.5092859   -0.1677429 
O    -5.5597003    0.7911403   -0.0289186 
C    -3.2602198    1.4959214   -0.1662135 
C    -1.9279225    1.1504350   -0.3144555 
C     0.3219462   -1.4672798    1.7002947 
O     0.9179194   -2.5033283    1.8469852 
O    -0.7788825   -1.1491658    2.3776596 
H     4.7093449    1.9479387   -1.1446260 
H     5.2615055    1.8140774    0.3623795 
H     4.7315656   -0.4702672    0.4866975 
H     4.3495939   -0.4670330   -1.2187486 
H     2.5400876   -1.4422796    0.6708366 
H     0.5281261    0.5831202    1.1337431 
H     0.3907061    0.1309900   -1.3091740 
H     0.0168957   -1.5577499   -0.9722519 
H    -2.2619495   -2.1934197   -0.5864736 
H    -4.6444115   -1.5818998   -0.3300689 
H    -5.6718876    1.7387056    0.0660117 
H    -3.5407898    2.5385336   -0.0544709 
H    -1.1751938    1.9316735   -0.3190820 
H    -0.9999317   -1.9026186    2.9399124 
C     1.6139103    4.1595460   -0.8251839 
O     2.6660744    4.4179641   -1.2286398 
O     0.5465649    3.9470741   -0.4312718 
