31
Energy = -911.6927460874
N    -2.4449932    1.5647845   -0.2977114 
C    -1.4652010    0.7825892    0.4385675 
C    -2.1895515   -0.4986378    0.9350648 
C    -3.4196434   -0.5770125    0.0402216 
C    -3.7379924    0.8979414   -0.1715035 
C    -0.2918718    0.4309695   -0.4605146 
O    -0.3721713    0.4642739   -1.6794587 
N     0.8303245    0.0536517    0.1790035 
C     1.9962998   -0.3960701   -0.5299810 
C     2.8356428    0.8142600   -0.9967082 
O     3.8923927    0.4741524   -1.8421337 
C     2.7925510   -1.2752134    0.3989708 
O     2.7128644   -1.2211578    1.5995067 
O     3.6119975   -2.0981973   -0.2495473 
H    -2.1550761    1.5573220   -1.2695320 
H    -1.0745594    1.3424363    1.2961606 
H    -1.5540749   -1.3838095    0.8872095 
H    -2.4869638   -0.3641950    1.9770719 
H    -4.2354652   -1.1436722    0.4915192 
H    -3.1657718   -1.0422812   -0.9154614 
H    -4.3498997    1.0941563   -1.0524720 
H    -4.2769707    1.2946270    0.6962954 
H     0.8688669    0.0154787    1.1854428 
H     1.6929371   -0.9623528   -1.4124399 
H     3.2626435    1.3076925   -0.1206545 
H     2.1328763    1.5090716   -1.4671791 
H     3.5248023    0.2195978   -2.6914964 
H     4.1267977   -2.5728359    0.4156780 
C     0.6105921    0.3453846   -4.3032450 
O    -0.4308034    0.6546252   -4.6885720 
O     1.6747621    0.0304041   -3.9649333 
