47
Energy = -1346.381481209
N     1.6744676    1.5811133   -0.9103400 
C     0.9513070    0.4956665   -0.2830166 
C     1.5241514    0.1914519    1.1155505 
C     2.7982596   -0.5810331    1.1022138 
C     4.1253436   -0.1352442    0.7772325 
C     4.6725436    1.0896619    0.3836046 
C     6.0319715    1.1753347    0.1644169 
C     6.8669021    0.0599997    0.3221251 
C     6.3574176   -1.1647246    0.7040396 
C     4.9870713   -1.2463608    0.9299472 
N     4.2165921   -2.3099158    1.3170598 
C     2.9101517   -1.9043773    1.4238176 
C    -0.5335904    0.8267456   -0.1358991 
O    -0.9287795    1.9753547   -0.0484567 
N    -1.3630549   -0.2375357   -0.0675237 
C    -2.7796780   -0.0896513    0.1294773 
C    -3.5039820    0.1913557   -1.2051242 
C    -4.9615321    0.4337068   -1.0645645 
C    -6.0023207   -0.2894428   -1.5792757 
N    -7.1366372    0.3475701   -1.1484906 
C    -6.7440618    1.4085479   -0.4031234 
N    -5.4427312    1.4883895   -0.3325039 
C    -3.2988790   -1.3640401    0.7443216 
O    -2.8099728   -2.4519953    0.5627376 
O    -4.3834727   -1.1770692    1.4915969 
H     1.2276342    2.4483373   -0.6273129 
H     1.5824531    1.5319326   -1.9159484 
H     1.0589163   -0.4068005   -0.8904599 
H     1.6531294    1.1483334    1.6303831 
H     0.7837959   -0.3740236    1.6880452 
H     4.0240480    1.9404359    0.2251756 
H     6.4651846    2.1190421   -0.1439902 
H     7.9295520    0.1594710    0.1367882 
H     7.0023509   -2.0275379    0.8231408 
H     4.5562281   -3.2300698    1.5197662 
H     2.1409936   -2.5963562    1.7299918 
H    -1.0012276   -1.1713238   -0.1784877 
H    -2.9703394    0.7509087    0.7975254 
H    -3.3204454   -0.6419228   -1.8871425 
H    -3.0180138    1.0785961   -1.6166044 
H    -6.0344243   -1.1699027   -2.1983875 
H    -8.0815716    0.0870796   -1.3636348 
H    -7.4459223    2.0854748    0.0588927 
H    -4.6737493   -2.0478540    1.7923635 
C    -0.6845565   -4.1085736   -0.3647685 
O    -0.0120988   -3.1666708   -0.4392076 
O    -1.3246832   -5.0663478   -0.3014233 
