33
Energy = -950.7557743532
N     0.4382050    3.0666174   -0.7040357 
C    -0.3206273    2.0099504   -0.0526445 
C    -0.7624354    1.0100951   -1.1324317 
C    -1.5236067   -0.1804962   -0.6309737 
C    -2.8563557   -0.0652488   -0.2475390 
C    -3.5591984   -1.1652579    0.2150191 
C    -2.9377399   -2.4032985    0.2951731 
C    -1.6110180   -2.5291583   -0.0861732 
C    -0.9075273   -1.4237849   -0.5431320 
C     0.5356751    1.2901108    0.9800348 
O     0.0500916    0.7716325    1.9667002 
N     1.8521679    1.2553822    0.6790334 
C     2.7580297    0.4138354    1.3851142 
C     3.0500283   -0.8759753    0.6540316 
O     2.5924535   -1.1988096   -0.4066352 
O     3.9155366   -1.6265372    1.3455868 
H    -0.0392299    3.3867684   -1.5358064 
H     0.5557610    3.8641181   -0.0934817 
H    -1.2057744    2.3587353    0.4909623 
H     0.1302849    0.6803747   -1.6691331 
H    -1.3816114    1.5647933   -1.8460433 
H    -3.3504241    0.8985477   -0.3123301 
H    -4.5950220   -1.0574798    0.5130661 
H    -3.4860005   -3.2648811    0.6560651 
H    -1.1160070   -3.4912162   -0.0264486 
H     0.1343681   -1.5231309   -0.8254409 
H     2.1186675    1.7034807   -0.1841698 
H     2.3104738    0.1577284    2.3472880 
H     3.7063921    0.9172220    1.5889832 
H     4.0411098   -2.4445218    0.8495103 
C    -0.3126745   -1.8296284    2.9171509 
O    -1.3461743   -1.5601640    3.3546615 
O     0.7252878   -2.1469024    2.5093541 
