42
Energy = -1101.871370194
N     2.0248102    1.3375198   -1.1016266 
C     1.8239302   -0.0845361   -1.0181260 
C     2.7168827   -0.6992338    0.0736541 
C     4.1345651   -0.2650845   -0.0091151 
C     5.2042548   -0.9127093   -0.5615115 
N     6.2714254   -0.0696904   -0.3926144 
C     5.8191202    1.0339882    0.2461271 
N     4.5382442    0.9489254    0.4932112 
C     0.4040093   -0.5468733   -0.7179459 
O    -0.0075436   -1.6409606   -1.0666704 
N    -0.3517819    0.3107667   -0.0006775 
C    -1.6599524   -0.0641885    0.4832813 
C    -2.7379263    0.0746398   -0.5891783 
C    -4.1702122    0.1933229   -0.0716897 
C    -5.1423919    0.0790943   -1.2367017 
C    -4.3987141    1.4963379    0.6827764 
C    -1.5504359   -1.4466080    1.1276218 
O    -0.6690724   -1.7476624    1.8875514 
O    -2.5519456   -2.2651896    0.8079442 
H     2.4941934    1.7564237   -0.3138112 
H     1.2490075    1.8739471   -1.4484171 
H     2.0774781   -0.5614735   -1.9716999 
H     2.6399697   -1.7831722    0.0045652 
H     2.3215994   -0.4094254    1.0517697 
H     5.2957587   -1.8718609   -1.0415101 
H     7.2182157   -0.2484581   -0.6729998 
H     6.4625996    1.8594229    0.5075743 
H     0.0929921    1.1420867    0.3470422 
H    -1.8849168    0.6112754    1.3135251 
H    -2.5031856    0.9760322   -1.1645165 
H    -2.6514553   -0.7692804   -1.2751445 
H    -4.3628370   -0.6407903    0.6087077 
H    -4.9695421    0.8771350   -1.9650257 
H    -5.0272021   -0.8752731   -1.7539582 
H    -6.1774734    0.1582867   -0.8978627 
H    -5.4273293    1.5611439    1.0431066 
H    -4.2213954    2.3563613    0.0300531 
H    -3.7474601    1.5995334    1.5536400 
H    -2.3377623   -3.1290521    1.1845274 
C     0.4176655   -4.2528609    0.6126425 
O     1.5379771   -3.9782687    0.6511923 
O    -0.6941661   -4.5779374    0.5793207 
