43
Energy = -1214.913007056
N    -2.6880803   -2.2085780   -1.8455649 
C    -2.6888284   -0.7862815   -2.1437842 
C    -3.7217755    0.0269679   -1.3443278 
C    -3.4582151   -0.0372320    0.1182866 
C    -2.9753511    0.9450633    0.9377869 
N    -2.8418937    0.3613718    2.1699597 
C    -3.2350214   -0.9279141    2.0571154 
N    -3.6128542   -1.2025584    0.8347844 
C    -1.3167894   -0.1568435   -1.9084793 
O    -1.1299367    1.0440706   -2.0509604 
N    -0.3654697   -1.0158085   -1.5235363 
C     0.9420029   -0.5719649   -1.1423060 
C     0.9253818   -0.0251057    0.3035024 
C     2.2354709    0.5276638    0.7733648 
C     2.7279642    1.7220524    0.2529549 
C     3.9513221    2.2221695    0.6676887 
C     4.7022039    1.5369107    1.6129930 
C     4.2199806    0.3489912    2.1398976 
C     2.9959401   -0.1508934    1.7194085 
C     1.8936706   -1.7389336   -1.2396570 
O     1.5869412   -2.8809189   -1.0247149 
O     3.1325970   -1.3561393   -1.5561918 
H    -3.2806039   -2.7143780   -2.4860468 
H    -3.0392416   -2.3652458   -0.9049832 
H    -2.8933942   -0.6438796   -3.2088083 
H    -4.7165914   -0.3678967   -1.5644404 
H    -3.6821718    1.0645435   -1.6746214 
H    -2.7099376    1.9700184    0.7441454 
H    -2.5210569    0.8138730    3.0064250 
H    -3.2301149   -1.6143493    2.8892535 
H    -0.6320559   -1.9891614   -1.4388298 
H     1.2639494    0.2234515   -1.8158955 
H     0.1536670    0.7474114    0.3129913 
H     0.5901050   -0.8307916    0.9604316 
H     2.1507380    2.2616734   -0.4897990 
H     4.3196892    3.1524110    0.2522837 
H     5.6580697    1.9292035    1.9381027 
H     4.7971263   -0.1912755    2.8808207 
H     2.6227879   -1.0827000    2.1309192 
H     3.6900777   -2.1440752   -1.5266155 
C    -0.5528694    3.6334609   -1.2754506 
O    -1.5143957    3.6812771   -0.6325266 
O     0.4225580    3.6377210   -1.8953941 
