39
Energy = -1045.615352873
N    -2.8515942   -1.1572881    0.6788472 
C    -2.0992367   -1.3406828   -0.5515021 
C    -2.4440713   -0.2777880   -1.6073157 
C    -3.8690915   -0.4437197   -2.1144518 
C    -2.1918227    1.1407926   -1.1151395 
C    -0.5981134   -1.2999268   -0.2960680 
O     0.1984586   -1.6195761   -1.1677328 
N    -0.2329645   -0.8823595    0.9227483 
C     1.1468603   -0.7479179    1.2912515 
C     1.7598352    0.5372199    0.7085795 
C     3.2826176    0.5714916    0.7152351 
C     3.7615735    1.8406011    0.0439101 
O     3.8591539    2.8914588    0.6440494 
N     4.0402912    1.7213798   -1.2764058 
C     1.2252071   -0.7682367    2.7983257 
O     0.2974919   -0.5597418    3.5320603 
O     2.4626614   -1.0230487    3.2379667 
H    -3.7790190   -0.8054174    0.4901659 
H    -2.9588712   -2.0294162    1.1773945 
H    -2.2764947   -2.3178627   -1.0197355 
H    -1.7636098   -0.4815083   -2.4385098 
H    -4.0532393   -1.4624339   -2.4622421 
H    -4.6114644   -0.2100331   -1.3455319 
H    -4.0575047    0.2357534   -2.9474875 
H    -2.4118904    1.8594997   -1.9064568 
H    -2.8211844    1.3863632   -0.2573533 
H    -1.1530559    1.2858214   -0.8139492 
H    -0.9614950   -0.6139549    1.5710719 
H     1.7014657   -1.6017892    0.8925468 
H     1.4069721    0.5856088   -0.3232811 
H     1.3593926    1.4072752    1.2347609 
H     3.6703770    0.5775818    1.7320546 
H     3.6696355   -0.3131579    0.2038157 
H     3.8664611    0.8683501   -1.7761007 
H     4.2719140    2.5535727   -1.7886611 
H     2.4366188   -0.9684378    4.2017781 
C     2.2013071   -1.7349589   -3.0545923 
O     1.5534847   -2.4247107   -3.7130415 
O     2.8950759   -1.0437764   -2.4327354 
