40
Energy = -1460.662854973
N     1.9850309   -3.2790399   -1.0461052 
C     1.9921297   -1.9817157   -0.3997890 
C     3.2261565   -1.2021391   -0.8467342 
C     3.3513389    0.1559987   -0.1827732 
S     4.9038701    0.9346453   -0.6644869 
C     4.7348519    2.4835583    0.2274351 
C     0.7428372   -1.1722720   -0.7299314 
O     0.3566694   -1.0468094   -1.8826197 
N     0.1059269   -0.5996010    0.3076214 
C    -1.0542591    0.2302775    0.1191178 
C    -2.3338849   -0.6296024    0.0220963 
C    -3.5685118    0.1204524   -0.3199427 
C    -4.0573878    0.4187114   -1.5627825 
N    -5.2016557    1.1352055   -1.3390867 
C    -5.3614818    1.2382134    0.0022701 
N    -4.3944060    0.6389268    0.6453089 
C    -1.1244123    1.1821239    1.2872934 
O    -0.6615884    0.9412067    2.3720620 
O    -1.7626524    2.3100451    0.9889425 
H     1.7825364   -3.1517987   -2.0318338 
H     1.2403447   -3.8556539   -0.6757041 
H     2.0490799   -2.1396301    0.6826506 
H     3.1805290   -1.0794700   -1.9323710 
H     4.0996458   -1.8181118   -0.6244867 
H     2.5260314    0.8100461   -0.4761421 
H     3.3300842    0.0547734    0.9070038 
H     4.6565410    2.3127385    1.3020905 
H     3.8664338    3.0456482   -0.1190743 
H     5.6321552    3.0693088    0.0310579 
H     0.4450523   -0.6990851    1.2510011 
H    -0.9424261    0.7896328   -0.8105929 
H    -2.4751194   -1.1494512    0.9718181 
H    -2.1268466   -1.3747595   -0.7466054 
H    -3.6999615    0.1814935   -2.5505172 
H    -5.8179409    1.5001499   -2.0422157 
H    -6.1981023    1.7517005    0.4498732 
H    -1.8563162    2.8122280    1.8083091 
C    -1.1812142   -2.3796658   -3.7539267 
O    -0.4063647   -3.2364521   -3.8011671 
O    -1.9890943   -1.5513271   -3.7362120 
