39
Energy = -1463.545376626
N     1.5999148   -1.0805453   -1.4281624 
C     1.6984271   -0.8847859    0.0096426 
C     2.1563965    0.5069725    0.4350630 
C     3.5731952    0.8184309    0.0037116 
C     3.9500650    2.2512577    0.2461638 
O     3.1886874    3.1440709    0.4996813 
O     5.2749936    2.4428095    0.1224529 
C     0.3786422   -1.2004871    0.7164057 
O     0.2451033   -1.0281483    1.9182448 
N    -0.5925853   -1.6697939   -0.0769989 
C    -1.8926120   -2.0029675    0.4319880 
C    -2.7221964   -0.7573750    0.7844879 
C    -3.0065881    0.1221096   -0.4190577 
S    -3.7309801    1.7185935   -0.0054321 
C    -2.2940894    2.5417210    0.6938986 
C    -2.5920428   -2.8564893   -0.5957426 
O    -2.1790701   -3.0848281   -1.7007276 
O    -3.7590404   -3.3233447   -0.1383923 
H     2.4499695   -1.4509287   -1.8235299 
H     1.3837920   -0.2160516   -1.9066284 
H     2.4049700   -1.6237588    0.4028839 
H     1.4741463    1.2526452    0.0144177 
H     2.0719111    0.5863500    1.5183753 
H     4.2997062    0.1785203    0.5110738 
H     3.7152910    0.6387655   -1.0682044 
H     5.4339099    3.3832131    0.2707837 
H    -0.3620705   -1.8635972   -1.0424323 
H    -1.7846449   -2.5935459    1.3473206 
H    -2.1514086   -0.2125877    1.5363840 
H    -3.6572940   -1.0698122    1.2501271 
H    -3.7247544   -0.3536339   -1.0917569 
H    -2.0958450    0.2966051   -0.9974669 
H    -1.9475108    2.0572100    1.6055634 
H    -2.6022160    3.5579330    0.9376349 
H    -1.4825753    2.5900576   -0.0341523 
H    -4.1564437   -3.8385228   -0.8512592 
C     0.2996242    0.9207630    3.9280248 
O     1.4298381    0.7720700    4.1218182 
O    -0.8311010    1.1054001    3.7650597 
