46
Energy = -1266.636833352
N    -0.3664793    2.1476285   -1.2810858 
C    -0.2940629    1.5420238    0.0303835 
C    -0.8885994    0.1318324   -0.0070066 
C    -2.3184136    0.0612710   -0.5182328 
C    -3.3043760    0.8157406    0.3600152 
N    -4.6811234    0.6833736   -0.0623152 
C    -5.3655865   -0.4801715    0.1796372 
N    -4.8529607   -1.4166154    0.8810624 
N    -6.6157836   -0.4929351   -0.4349306 
C     1.0812248    1.4396247    0.6894881 
O     1.1931296    1.2768870    1.8935356 
N     2.1391552    1.5073979   -0.1409322 
C     3.4847965    1.2903241    0.3018587 
C     3.7220057   -0.1311141    0.8461227 
C     3.3116740   -1.1915101   -0.1072667 
C     2.3093527   -2.1110813    0.0297838 
N     2.3291957   -2.8497951   -1.1233941 
C     3.3189289   -2.3566120   -1.9039359 
N     3.9282061   -1.3545440   -1.3234407 
C     4.4046318    1.6219292   -0.8497195 
O     4.0381555    1.9787126   -1.9391461 
O     5.6884687    1.5069621   -0.5128355 
H     0.0180794    1.5539097   -2.0035876 
H     0.0896543    3.0475217   -1.3198704 
H    -0.8788638    2.1513616    0.7253032 
H    -0.2439172   -0.4896202   -0.6395236 
H    -0.8306851   -0.2814517    1.0027400 
H    -2.6320733   -0.9842016   -0.5500966 
H    -2.3679811    0.4574577   -1.5361887 
H    -3.0692657    1.8820027    0.3734748 
H    -3.2428210    0.4450743    1.3843409 
H    -4.9144017    1.1343436   -0.9311908 
H    -5.5274323   -2.1519806    1.0584119 
H    -7.0957050    0.3936267   -0.4231082 
H    -7.2096775   -1.2455520   -0.1306409 
H     2.0010287    1.6258107   -1.1312600 
H     3.7236271    1.9861146    1.1139007 
H     3.1447178   -0.2176734    1.7651470 
H     4.7803261   -0.2282784    1.0945605 
H     1.6038447   -2.2908629    0.8228100 
H     1.7214810   -3.6171977   -1.3454320 
H     3.5552081   -2.7646501   -2.8747124 
H     6.2058701    1.6864729   -1.3072518 
C     2.7559590    0.2331479   -3.8371733 
O     1.7480182    0.4099578   -3.2919355 
O     3.7330715    0.0412901   -4.4197465 
