38
Energy = -1330.393182273
N    -3.9319265   -1.1623643    0.7825743 
C    -3.1413837   -0.7279793   -0.3457363 
C    -4.0119483    0.0927581   -1.3005092 
S    -5.2725223   -0.9071957   -2.1187546 
C    -1.9632096    0.1578598    0.0525424 
O    -2.0158362    0.8986054    1.0160346 
N    -0.8996203    0.0827359   -0.7805924 
C     0.1551350    1.0565533   -0.7706991 
C     1.5142780    0.4653606   -0.3820420 
C     1.5111738   -0.0849604    1.0346234 
C     2.8012656   -0.7985387    1.4137602 
C     4.0280720    0.1051274    1.4648527 
N     5.2600469   -0.5274556    1.9022494 
C     0.2281274    1.7060007   -2.1354691 
O    -0.3396832    1.3094207   -3.1193060 
O     1.0269883    2.7766907   -2.1383912 
H    -3.4768433   -1.9269764    1.2619788 
H    -3.9874833   -0.3962953    1.4459396 
H    -2.7780583   -1.6058609   -0.8852456 
H    -4.4763924    0.9106732   -0.7466154 
H    -3.4093969    0.5375717   -2.0945240 
H    -5.6629401   -1.5159420   -0.9855327 
H    -0.9813021   -0.4909219   -1.6056708 
H    -0.1200946    1.8207737   -0.0386886 
H     2.2694302    1.2450245   -0.4938947 
H     1.7679545   -0.3310693   -1.0911955 
H     1.3215517    0.7338985    1.7368128 
H     0.6707877   -0.7749082    1.1431497 
H     2.6735290   -1.2629854    2.3974109 
H     2.9889363   -1.6192178    0.7105888 
H     4.2145105    0.5429193    0.4802735 
H     3.8237201    0.9481706    2.1334461 
H     5.5069500   -1.2880338    1.2819486 
H     5.1414822   -0.9329707    2.8220202 
H     1.0397674    3.1215445   -3.0401246 
C    -2.0841466   -0.9834562   -4.1926222 
O    -1.5582237   -1.6351612   -3.3895364 
O    -2.6123683   -0.3466941   -4.9955631 
