45
Energy = -1120.331549683
N     3.0301125   -0.4104193   -0.7238806 
C     2.4165043    0.3330307    0.3653591 
C     2.3873523    1.8724039    0.2362234 
C     3.6364409    2.3987238   -0.4560526 
C     2.2453552    2.5359973    1.6006598 
C     1.0161244   -0.2310534    0.6221257 
O     0.1463737    0.3957196    1.2203806 
N     0.8170555   -1.4679592    0.1562602 
C    -0.4458762   -2.1341771    0.3080796 
C    -1.4766837   -1.6624044   -0.7343741 
C    -2.9372041   -1.8596907   -0.3314611 
C    -3.7627869   -0.6057461   -0.6007790 
N    -3.2339171    0.5138719    0.1285639 
C    -2.7779753    1.6502518   -0.4720840 
N    -3.1346135    1.9530430   -1.6644551 
N    -1.9553585    2.3924108    0.3762586 
C    -0.2082311   -3.6183719    0.2021790 
O     0.7933991   -4.1248873   -0.2263544 
O    -1.2699410   -4.3236258    0.6078185 
H     4.0288518   -0.2664242   -0.7428650 
H     2.6664222   -0.1070769   -1.6188143 
H     2.9936194    0.0935407    1.2680647 
H     1.5149079    2.1374184   -0.3733997 
H     4.5391134    2.1132938    0.0934997 
H     3.7378180    2.0399049   -1.4810443 
H     3.6110652    3.4891990   -0.4910588 
H     2.1725565    3.6203676    1.4944373 
H     3.1284867    2.3264848    2.2125665 
H     1.3678179    2.1815428    2.1352948 
H     1.5844785   -1.9284890   -0.3144662 
H    -0.8436718   -1.9062392    1.3006313 
H    -1.2597652   -2.1289222   -1.6986957 
H    -1.2917789   -0.5947008   -0.8543106 
H    -3.3833055   -2.7123331   -0.8468803 
H    -2.9993588   -2.0929534    0.7365191 
H    -4.8103249   -0.7877692   -0.3386749 
H    -3.7395296   -0.3290893   -1.6559465 
H    -2.9822423    0.3771637    1.0914062 
H    -2.6469009    2.7815293   -1.9838214 
H    -1.6150678    3.2377778   -0.0507315 
H    -1.1987500    1.8460492    0.7751241 
H    -1.0594921   -5.2554009    0.4681249 
C    -1.4209774    0.8775449    3.5716468 
O    -0.6584576    1.6557174    3.9536037 
O    -2.2019959    0.0977723    3.2182520 
