42
Energy = -1101.876393821
N     2.2215046   -0.9198566   -1.5225689 
C     1.7904209   -1.1559319   -0.1609907 
C     2.1958462    0.0037984    0.7439399 
C     3.6640657    0.1970129    0.9072640 
C     4.7030404   -0.2471026    0.1354586 
N     5.8374836    0.2085974    0.7563092 
C     5.4498744    0.9007594    1.8530584 
N     4.1488394    0.9131263    1.9739942 
C     0.2991192   -1.4134777    0.0654636 
O    -0.1056158   -1.9347710    1.0892660 
N    -0.5293793   -1.0024225   -0.9174876 
C    -1.9537079   -1.1506322   -0.8083537 
C    -2.5762177   -0.0732048    0.1161738 
C    -3.9940215   -0.4201004    0.5385494 
C    -2.4543141    1.3203278   -0.4899721 
C    -2.7682725    2.4407236    0.4865107 
C    -2.5196981   -1.1120404   -2.2047954 
O    -1.9354033   -0.6824987   -3.1676475 
O    -3.7613056   -1.5946965   -2.2758341 
H     1.9657167   -0.0024566   -1.8609593 
H     1.8829316   -1.6183561   -2.1682175 
H     2.2850580   -2.0593689    0.2088364 
H     1.7387353    0.9260385    0.3604185 
H     1.7628097   -0.1624542    1.7313596 
H     4.7183031   -0.8108717   -0.7800094 
H     6.7806294    0.0536624    0.4511911 
H     6.1528206    1.3672225    2.5257933 
H    -0.1581906   -0.6111876   -1.7671475 
H    -2.1730799   -2.1259860   -0.3659054 
H    -1.9419287   -0.1179340    1.0069164 
H    -4.0488367   -1.4421478    0.9180244 
H    -4.7000687   -0.3299715   -0.2883009 
H    -4.3254915    0.2429378    1.3378888 
H    -3.1121262    1.4006569   -1.3635199 
H    -1.4310324    1.4499008   -0.8554282 
H    -3.8054066    2.4077687    0.8234939 
H    -2.1283826    2.3780844    1.3699260 
H    -2.6052785    3.4166573    0.0264253 
H    -4.0487815   -1.4982848   -3.1929408 
C    -0.6261514    1.8435216   -3.6339075 
O     0.3530578    1.4267329   -3.1746651 
O    -1.5877359    2.2867058   -4.0927820 
