41
Energy = -1519.589034100
N     3.0871449    0.8067886   -0.2933840 
C     2.2894434    0.9943727    0.8968886 
C     1.3145416    2.1482152    0.6884066 
S     2.1305274    3.7398587    0.4433985 
C     1.4590665   -0.1938342    1.3957280 
O     0.8254304   -0.1181501    2.4303207 
N     1.4596935   -1.2913500    0.6033931 
C     0.4792144   -2.3165470    0.7653055 
C    -0.4585975   -2.4233916   -0.4686925 
C    -0.8473235   -1.0956042   -1.0118921 
C    -1.6035771   -0.0605729   -0.3656814 
C    -2.2167144    0.0599423    0.8846203 
C    -2.8564890    1.2390817    1.2031907 
C    -2.8992890    2.3094057    0.2989867 
C    -2.3032515    2.2232137   -0.9429270 
C    -1.6590101    1.0324286   -1.2605056 
N    -0.9644826    0.6733134   -2.3864617 
C    -0.4795745   -0.6001793   -2.2314862 
C     1.1209177   -3.6659009    0.9772179 
O     2.2162649   -3.9830949    0.5953503 
O     0.2907995   -4.5154014    1.5923064 
H     2.5285234    0.5754882   -1.1040420 
H     3.8205150    0.1233432   -0.1811631 
H     2.9586041    1.2608174    1.7191069 
H     0.6580092    1.9279934   -0.1567789 
H     0.6852569    2.2496415    1.5708591 
H     3.0398309    3.2765970   -0.4296909 
H     1.9837772   -1.2651414   -0.2536625 
H    -0.0981487   -2.0543185    1.6522856 
H     0.0546633   -2.9854418   -1.2540785 
H    -1.3312550   -3.0118320   -0.1749887 
H    -2.1769207   -0.7489536    1.6028234 
H    -3.3261482    1.3472110    2.1726198 
H    -3.4040055    3.2244393    0.5829199 
H    -2.3275631    3.0556381   -1.6357181 
H    -0.8588509    1.2379659   -3.2076056 
H     0.0988119   -1.0712749   -3.0112594 
H     0.7412715   -5.3679943    1.6435146 
C     3.6590946   -3.3229038   -1.7919757 
O     3.0421015   -2.3500766   -1.9392404 
O     4.2902216   -4.2808220   -1.6843083 
