41
Energy = -1179.683192160
N     4.2478598    1.8067766    1.3348871 
C     3.2998796    1.3700448    0.3448941 
C     3.6120947   -0.0758624   -0.1107475 
O     3.3518955   -0.9958996    0.9277857 
C     5.0521138   -0.2317972   -0.5391905 
C     1.8568388    1.3914785    0.8361076 
O     1.5602242    1.4539538    2.0131615 
N     0.8966208    1.2679297   -0.1225536 
C    -0.4194833    0.8336784    0.2692541 
C    -1.2846058    0.6397732   -0.9800231 
C    -2.6789427    0.1770158   -0.6816869 
C    -3.0267428   -1.1656442   -0.7929170 
C    -4.2986739   -1.6104022   -0.4804136 
C    -5.2568862   -0.7041120   -0.0449277 
O    -6.4898876   -1.1826431    0.2496665 
C    -4.9288488    0.6420895    0.0680343 
C    -3.6511225    1.0705135   -0.2487306 
C    -0.3080427   -0.4750924    1.0402765 
O     0.4637271   -1.3557829    0.7473282 
O    -1.1685710   -0.5597343    2.0417808 
H     4.2209849    1.1654697    2.1192645 
H     3.9711131    2.7051845    1.7077609 
H     3.3777846    2.0134028   -0.5402840 
H     2.9625619   -0.3035931   -0.9669178 
H     2.4126626   -1.2210308    0.9129912 
H     5.2998756    0.4773374   -1.3307993 
H     5.7174883   -0.0438445    0.3016188 
H     5.2162093   -1.2455105   -0.9050053 
H     1.1963411    1.0255426   -1.0522426 
H    -0.8721637    1.5739683    0.9293425 
H    -0.7869735   -0.0866851   -1.6296307 
H    -1.3026721    1.5952784   -1.5106611 
H    -2.2844382   -1.8817839   -1.1285995 
H    -4.5654581   -2.6554717   -0.5706687 
H    -7.0517436   -0.4613545    0.5387624 
H    -5.6748945    1.3559685    0.4020943 
H    -3.4097957    2.1239281   -0.1556744 
H    -1.0140018   -1.4039073    2.4860561 
C     2.5744824   -0.5447127    3.9061117 
O     3.5365448    0.0599835    4.1195182 
O     1.6177358   -1.1721935    3.7343567 
