39
Energy = -1062.593555818
N     1.6483496   -1.4597127    0.6243982 
C     1.4726826   -0.0278352    0.6391051 
C     2.1665809    0.6079622   -0.5685323 
C     3.6380816    0.4052733   -0.5433874 
C     4.4374391   -0.2132325   -1.4631191 
N     5.7096028   -0.1333290   -0.9570349 
C     5.6291281    0.5156719    0.2283619 
N     4.3983032    0.8543583    0.5057340 
C     0.0442497    0.5186838    0.7104030 
O    -0.1710260    1.7105115    0.8281208 
N    -0.9438141   -0.4029415    0.6187830 
C    -2.3338675   -0.0481538    0.6951189 
C    -3.0632771   -0.2525277   -0.6471987 
C    -2.4417131    0.6347284   -1.7132858 
C    -4.5570906    0.0079020   -0.5252115 
C    -2.9793844   -0.8894035    1.7734000 
O    -2.7976825   -2.0727214    1.9091146 
O    -3.7965866   -0.1903958    2.5634399 
H     1.2724484   -1.9051418   -0.2002675 
H     1.2952797   -1.9194479    1.4496849 
H     1.9733709    0.3666851    1.5281776 
H     1.9309715    1.6736492   -0.5591985 
H     1.7507874    0.1887364   -1.4909222 
H     4.2200173   -0.6936532   -2.4017309 
H     6.5431750   -0.4917443   -1.3850356 
H     6.4947203    0.7146020    0.8411560 
H    -0.7024009   -1.3780904    0.5583228 
H    -2.3790123    1.0052233    0.9765677 
H    -2.9134582   -1.3017327   -0.9291849 
H    -2.5785752    1.6895998   -1.4653442 
H    -1.3715774    0.4543936   -1.8141004 
H    -2.9107490    0.4485337   -2.6810763 
H    -5.0459474   -0.6829529    0.1638387 
H    -4.7475414    1.0241959   -0.1716311 
H    -5.0378035   -0.1024914   -1.4983874 
H    -4.1795889   -0.8109798    3.1974473 
C    -1.8239003   -4.2556417    0.3797338 
O    -0.9326716   -3.6178042   -0.0006502 
O    -2.6973968   -4.9203538    0.7331147 
