33
Energy = -984.0364503055
N    -3.7528135    0.1158613   -1.0941117 
C    -3.4757091    0.7300248    0.1950992 
C    -3.9161440   -0.1932481    1.3198781 
C    -1.9882922    1.0185511    0.3748673 
O    -1.5943760    1.7489910    1.2671553 
N    -1.1817116    0.3864997   -0.4950073 
C     0.2462293    0.4890415   -0.4227942 
C     0.8447851   -0.6233483    0.4661330 
C     2.2909976   -0.4457052    0.7465462 
C     3.3480539   -1.2276677    0.3719391 
N     4.4601446   -0.6034032    0.8743701 
C     4.0412536    0.5109373    1.5193654 
N     2.7425207    0.6345510    1.4609480 
C     0.8006445    0.3838288   -1.8223664 
O     0.2966789   -0.2637755   -2.7021415 
O     1.9408719    1.0615004   -1.9763439 
H    -4.6328489   -0.3796061   -1.0752772 
H    -3.8064235    0.8055930   -1.8311326 
H    -3.9700426    1.6997871    0.3300276 
H    -4.9998565   -0.3292853    1.3024256 
H    -3.6346713    0.2301840    2.2827534 
H    -3.4424718   -1.1717481    1.2139665 
H    -1.6146851   -0.2054167   -1.1906032 
H     0.5094617    1.4542261    0.0111890 
H     0.6581389   -1.5919869   -0.0026837 
H     0.2864666   -0.5902931    1.4041589 
H     3.4045304   -2.1448749   -0.1890610 
H     5.4082540   -0.9212461    0.7901312 
H     4.7204118    1.1885621    2.0126973 
H     2.2453914    0.8948797   -2.8774654 
C     0.6154754    2.0523886    3.0965482 
O     0.3367099    1.0303327    3.5639245 
O     0.8983100    3.0909919    2.6757029 
