36
Energy = -1172.500027773
N     3.1205729   -1.8018679   -0.4065361 
C     2.8970144   -0.9738570    0.7560852 
C     3.7971239    0.2519997    0.7216865 
C     3.4882377    1.1529013   -0.4342816 
O     2.5463714    1.0354827   -1.1777475 
O     4.3847565    2.1372552   -0.5602150 
C     1.4592149   -0.5308021    1.0571156 
O     1.2297690    0.3134004    1.9108876 
N     0.4916869   -1.1639264    0.3785961 
C    -0.8943543   -0.8137595    0.5217696 
C    -1.2461232    0.4030752   -0.3628584 
C    -2.6336014    0.9057107   -0.2008392 
C    -3.0957348    1.8482434    0.6769431 
N    -4.4419415    1.9324234    0.4436951 
C    -4.7380451    1.0580690   -0.5477807 
N    -3.6721636    0.4228327   -0.9574943 
C    -1.7094479   -2.0168318    0.1154038 
O    -1.3493945   -2.8184011   -0.7067367 
O    -2.8766370   -2.0841674    0.7518761 
H     2.7693557   -1.3652015   -1.2478888 
H     2.7380175   -2.7304289   -0.3126353 
H     3.1935439   -1.5529907    1.6366612 
H     3.6685591    0.8415473    1.6313181 
H     4.8435160   -0.0496373    0.6635342 
H     4.0967340    2.6860383   -1.2999868 
H     0.7278239   -1.7953431   -0.3686020 
H    -1.0890618   -0.5609438    1.5638677 
H    -0.5278877    1.1797925   -0.1012627 
H    -1.0765099    0.1300629   -1.4062186 
H    -2.5928348    2.4461551    1.4175847 
H    -5.0861058    2.5436479    0.9112279 
H    -5.7384373    0.9320968   -0.9317235 
H    -3.3759502   -2.8086955    0.3543891 
C     0.9978060    3.1005546    1.9058081 
O     2.1333775    3.2082046    1.7156888 
O    -0.1427985    3.0466020    2.0920228 
