38
Energy = -1330.383601568
N     0.5040123    1.4782854    0.6935052 
C     0.3567895    0.9240925   -0.6339268 
C     1.1003467   -0.4062512   -0.7761776 
C     2.6210116   -0.3256329   -0.7582645 
C     3.2614491   -0.0413702    0.5920000 
C     4.7741035   -0.1838841    0.5687379 
N     5.1694111   -1.5586575    0.2930782 
C    -1.0697105    0.7048468   -1.1365736 
O    -1.3103315    0.5861994   -2.3225228 
N    -2.0231910    0.6020425   -0.1757821 
C    -3.4095959    0.4695954   -0.5002644 
C    -4.0280849   -0.8104338    0.0688686 
S    -2.9598069   -2.2193510   -0.3447507 
C    -4.1787724    1.6661701    0.0221716 
O    -3.7392174    2.4841083    0.7828092 
O    -5.4334611    1.6864242   -0.4396333 
H     0.3403393    0.8039299    1.4270139 
H    -0.0468344    2.3093400    0.8518074 
H     0.7895055    1.6280187   -1.3520907 
H     0.7493702   -1.0867138    0.0108008 
H     0.7821091   -0.8457807   -1.7234962 
H     2.9446054    0.4357911   -1.4774363 
H     3.0174403   -1.2754548   -1.1248641 
H     2.8550110   -0.7357698    1.3399901 
H     2.9974508    0.9607378    0.9331129 
H     5.1789571    0.4453398   -0.2304607 
H     5.1834053    0.2072989    1.5118445 
H     4.9235072   -2.1563253    1.0719903 
H     6.1704672   -1.6302866    0.1742575 
H    -1.7788030    0.8899867    0.7568357 
H    -3.4817137    0.4470791   -1.5900976 
H    -4.1284618   -0.7338700    1.1537514 
H    -5.0146935   -0.9560887   -0.3654103 
H    -3.9318206   -3.1421002   -0.3112735 
H    -5.8691240    2.4558734   -0.0519203 
C    -2.5709619   -1.5555704   -3.7128165 
O    -1.5635207   -2.1188668   -3.7628180 
O    -3.5992342   -1.0220778   -3.6977865 
