37
Energy = -1152.636459628
N    -2.6106966   -0.4663368    1.3644323 
C    -2.5038330   -0.0918147   -0.0318146 
C    -3.2056488    1.2159395   -0.4179212 
C    -4.7006582    1.0120864   -0.4126681 
O    -5.3193985    0.7543822    0.6047153 
N    -5.2952082    1.0971713   -1.6238240 
C    -1.0514048   -0.0595941   -0.5066164 
O    -0.7346341    0.4366390   -1.5775707 
N    -0.1830278   -0.6503993    0.3244701 
C     1.2149396   -0.7729494    0.0159152 
C     1.9779180    0.5161969    0.3885310 
C     3.4202742    0.4832632    0.0402941 
C     4.5014539    0.5178446    0.8773691 
N     5.5980396    0.4385793    0.0594980 
C     5.1449050    0.3594333   -1.2148132 
N     3.8401976    0.3837841   -1.2611839 
C     1.7560560   -1.9430488    0.8005989 
O     1.3247565   -2.2962366    1.8666581 
O     2.7914238   -2.5316611    0.1995575 
H    -3.5804605   -0.6688553    1.5748529 
H    -2.3723891    0.3282475    1.9473541 
H    -2.9537968   -0.9030284   -0.6173756 
H    -2.9625258    1.9824623    0.3221237 
H    -2.8399442    1.5463372   -1.3879662 
H    -6.2772920    0.8956133   -1.6889369 
H    -4.7577287    1.2157092   -2.4633109 
H    -0.5485088   -1.0654631    1.1717537 
H     1.3448528   -0.9450553   -1.0534141 
H     1.8482759    0.7008033    1.4570897 
H     1.4818860    1.3209746   -0.1582870 
H     4.5833159    0.5913052    1.9485189 
H     6.5581833    0.4522305    0.3510004 
H     5.8076774    0.2888830   -2.0633316 
H     3.1016750   -3.2259813    0.7947339 
C    -1.8403419    0.4160720   -4.1717911 
O    -2.8758074    0.8082594   -3.8233744 
O    -0.8343682    0.0216912   -4.5728866 
