24
Energy = -795.0612247263
N     2.5711542   -0.2898347    1.0301690 
C     2.2680798   -0.7827067   -0.2986929 
C     0.8185302   -0.5783717   -0.7013324 
O     0.3859570   -1.0847308   -1.7345280 
N     0.1073182    0.1766777    0.1353613 
C    -1.2565529    0.5966317   -0.0641649 
C    -2.2608561   -0.5623188   -0.2471524 
O    -2.3168834   -1.0239389   -1.5575993 
C    -1.6222360    1.4640839    1.1168625 
O    -0.9304011    1.6338180    2.0846213 
O    -2.8204194    2.0343353    0.9631734 
H     3.5051988    0.0848081    1.0881151 
H     2.4854048   -1.0137766    1.7285190 
H     2.4881914   -1.8426931   -0.4567505 
H     2.8604014   -0.2434142   -1.0410993 
H     0.6015210    0.5300720    0.9482807 
H    -1.3442376    1.2170032   -0.9642364 
H    -1.9904479   -1.3518297    0.4691630 
H    -3.2572042   -0.1998123    0.0081552 
H    -1.4001383   -1.1914420   -1.8393519 
H    -2.9853920    2.5642972    1.7527290 
C     1.7772479   -2.2381991   -3.8801598 
O     2.8046511   -2.0239650   -3.3884146 
O     0.7776784   -2.4723903   -4.4092514 
