36
Energy = -1155.513608060
N     1.3561005   -1.8992656    1.6857878 
C     1.3260688   -0.4605528    1.8958545 
C     2.4344788    0.2458605    1.1194288 
C     2.3212931    0.0881323   -0.3943532 
C     3.4574767    0.8240423   -1.0675543 
O     4.5817426    0.3680153   -1.1141926 
N     3.1332067    2.0354171   -1.5790608 
C    -0.0048457    0.1456186    1.4655518 
O    -0.2598492    1.3222694    1.6704413 
N    -0.8358517   -0.6936123    0.8267297 
C    -2.0983213   -0.2535240    0.3229296 
C    -1.9852126    0.2352579   -1.1356044 
C    -3.1753890    1.0086228   -1.6273668 
O    -3.8358653    0.7393205   -2.5901506 
O    -3.4012102    2.0911787   -0.8618654 
C    -3.0925050   -1.3878767    0.4146676 
O    -2.8068262   -2.5370993    0.6044706 
O    -4.3401784   -0.9533847    0.2157485 
H     2.2989699   -2.2217732    1.5190065 
H     1.0018753   -2.3988944    2.4891595 
H     1.4417328   -0.1812383    2.9500014 
H     2.3923082    1.3046714    1.3798647 
H     3.4044830   -0.1326790    1.4522366 
H     1.3561864    0.4658202   -0.7384107 
H     2.3952930   -0.9612637   -0.6807804 
H     3.8679296    2.6011981   -1.9651410 
H     2.2176910    2.4309135   -1.4640746 
H    -0.5295612   -1.6491444    0.7010452 
H    -2.4404016    0.5805772    0.9391543 
H    -1.1225018    0.9026240   -1.1733963 
H    -1.8114417   -0.5986534   -1.8137555 
H    -4.1766673    2.5375836   -1.2229875 
H    -4.9210797   -1.7244576    0.2095388 
C    -0.5492769    3.5939221    0.1100916 
O    -1.2012010    4.1277979    0.8951973 
O     0.1055825    3.1012423   -0.7131611 
