42
Energy = -1230.235258317
N    -3.2767727    1.5902914   -1.2958108 
C    -3.4464291    0.7401309   -0.1419357 
C    -4.0769016   -0.5816131   -0.5697571 
C    -5.3947528   -0.3961933   -1.2616347 
O    -5.6841728   -0.8448289   -2.3370289 
O    -6.2592903    0.3185051   -0.5209526 
C    -2.2171207    0.4105463    0.7128063 
O    -2.3256645   -0.2497657    1.7335846 
N    -1.0439131    0.8884036    0.2681561 
C     0.2033812    0.6302909    0.9361136 
C     0.6618005   -0.8169361    0.6556254 
C     1.7664948   -1.4238809    1.5137856 
C     3.2113214   -0.9679616    1.3076124 
N     3.6135797   -0.9333685   -0.0813258 
C     4.1827138    0.1145663   -0.7222143 
N     4.2709843    1.2887292   -0.1879475 
N     4.6051224   -0.1863452   -1.9934348 
C     1.2304561    1.5926315    0.3833613 
O     1.1518435    2.0122152   -0.7530707 
O     2.2222759    1.8273818    1.2004470 
H    -2.6869086    1.1845672   -2.0092226 
H    -2.9393617    2.5123602   -1.0640756 
H    -4.1417148    1.2330907    0.5427492 
H    -3.4211301   -1.1164798   -1.2583597 
H    -4.2209504   -1.1988996    0.3189913 
H    -7.0678206    0.3929661   -1.0414592 
H    -0.9874867    1.3911875   -0.6031227 
H     0.0824014    0.7701813    2.0116416 
H     0.9171778   -0.8868400   -0.4065753 
H    -0.2297743   -1.4275070    0.8073242 
H     1.7273559   -2.5059580    1.3465981 
H     1.5281937   -1.2851123    2.5721974 
H     3.3716628    0.0200295    1.7215186 
H     3.8637421   -1.6563181    1.8556857 
H     3.4119273   -1.7402030   -0.6443130 
H     4.7774681    1.9381035   -0.7721148 
H     5.0230128    0.5599560   -2.5180720 
H     5.0054597   -1.0937134   -2.1554290 
H     3.1158054    1.8119714    0.6453637 
C     0.7145243    1.1689092   -3.3669742 
O    -0.4113993    1.0095573   -3.1452909 
O     1.8296246    1.3073702   -3.6333774 
