46
Energy = -1200.086784398
N    -0.5977422   -1.4913327    0.2881989 
C    -0.5238469   -0.1061088   -0.1419924 
C    -1.2631843    0.8916798    0.7602669 
C    -2.7268417    0.6363445    0.7904740 
C    -3.6497584    0.8708630   -0.2837637 
C    -3.5219104    1.4179034   -1.5638548 
C    -4.6414216    1.5094108   -2.3655162 
C    -5.8927918    1.0667719   -1.9146930 
C    -6.0520966    0.5276329   -0.6532029 
C    -4.9220135    0.4360260    0.1521442 
N    -4.7717484   -0.0397699    1.4271549 
C    -3.4561392    0.0834277    1.8042042 
C     0.9187647    0.3493708   -0.3479156 
O     1.1882849    1.5251064   -0.5345902 
N     1.8251010   -0.6419049   -0.3242455 
C     3.2225466   -0.4311936   -0.5893933 
C     4.0900324   -0.6077687    0.6729489 
C     5.5702926   -0.4512882    0.3580609 
C     3.6613817    0.3799321    1.7460838 
C     3.6447230   -1.4241668   -1.6502384 
O     3.3230046   -2.5820880   -1.6536919 
O     4.4344815   -0.8833268   -2.5853592 
H    -1.5035579   -1.8773511    0.0615104 
H    -0.5047428   -1.5511191    1.2953519 
H    -0.9726244   -0.0547751   -1.1395158 
H    -1.0446897    1.8991268    0.4008146 
H    -0.8461802    0.8223924    1.7706514 
H    -2.5617635    1.7751132   -1.9178655 
H    -4.5570529    1.9333231   -3.3584228 
H    -6.7526950    1.1524396   -2.5674874 
H    -7.0225085    0.1917598   -0.3072812 
H    -5.5102511   -0.3860340    2.0087817 
H    -3.1349774   -0.2273837    2.7863157 
H     1.4614594   -1.5821515   -0.2409320 
H     3.3402075    0.5852620   -0.9656470 
H     3.9120132   -1.6271754    1.0347893 
H     5.7707973    0.5308730   -0.0769545 
H     5.9300494   -1.2079043   -0.3408851 
H     6.1594682   -0.5396593    1.2722150 
H     2.6015277    0.2843419    1.9827083 
H     4.2292646    0.2095094    2.6625966 
H     3.8418566    1.4056105    1.4186292 
H     4.6721177   -1.5932358   -3.1959608 
C     2.8522921    3.7412537   -0.8781968 
O     1.9230975    4.4139442   -1.0104123 
O     3.8163459    3.1107012   -0.7513861 
