50
Energy = -1214.916509602
N     1.4033595    0.5968712    0.8113230 
C     1.0936955   -0.5001383   -0.0838616 
C     2.1861148   -1.5662506   -0.0495558 
C     3.5479643   -1.0283874   -0.4811450 
C     4.4392527   -0.5953447    0.6799727 
N     5.5041012    0.2830046    0.2525255 
C     5.2457071    1.6198959    0.0460610 
N     4.1092627    2.1953863    0.1214167 
N     6.3800839    2.3529315   -0.2576520 
C    -0.2775788   -1.1672507    0.0842091 
O    -0.5318855   -2.2384200   -0.4301011 
N    -1.1923798   -0.4617951    0.7950294 
C    -2.4438461   -1.0430762    1.2066550 
C    -3.3724596   -1.4224992    0.0502809 
C    -3.5621290   -0.3027082   -0.9598182 
C    -4.1590407    0.9733427   -0.3891851 
C    -4.4605436    2.0127376   -1.4613831 
N    -5.0348412    3.2633117   -0.9994548 
C    -2.1825364   -2.1850417    2.1813283 
O    -1.1544936   -2.3552097    2.7744158 
O    -3.2656286   -2.9520156    2.3632641 
H     1.2970818    0.3586592    1.7873309 
H     0.9255126    1.4597681    0.5984312 
H     1.0812088   -0.0840148   -1.0981128 
H     1.8622008   -2.3797592   -0.6965440 
H     2.2384009   -1.9894230    0.9608649 
H     3.4067358   -0.1688722   -1.1412453 
H     4.0840258   -1.7789225   -1.0665393 
H     4.8945520   -1.4727304    1.1431874 
H     3.8312128   -0.1107903    1.4516511 
H     6.4265393    0.0797204    0.5959218 
H     3.3699641    1.5777204    0.4442936 
H     7.0246225    1.8952825   -0.8818154 
H     6.1452753    3.2869203   -0.5554735 
H    -0.8446912    0.3199575    1.3194929 
H    -2.9540764   -0.2829156    1.8084106 
H    -2.9703298   -2.3027819   -0.4482969 
H    -4.3359291   -1.7005667    0.4823471 
H    -2.6041280   -0.0766097   -1.4370965 
H    -4.2144234   -0.6759414   -1.7556929 
H    -3.4760377    1.4199788    0.3434335 
H    -5.0843703    0.7400898    0.1525516 
H    -3.5407454    2.2443922   -2.0076169 
H    -5.1434062    1.5788562   -2.1988721 
H    -4.4082135    3.7263433   -0.3538733 
H    -5.8967760    3.0936767   -0.4970463 
H    -3.0242210   -3.6188562    3.0180256 
C     3.1095096    4.3495019   -0.9652642 
O     4.1338825    4.7797130   -1.2947771 
O     2.0288945    4.0301396   -0.6954104 
