36
Energy = -990.0399870436
N    -0.6866372    2.3838197   -1.1774881 
C    -0.4427897    2.3235062    0.2436621 
C    -1.6991721    1.8333962    0.9823589 
C    -2.0727874    0.4255064    0.6203315 
C    -2.9046301    0.1598828   -0.4653839 
C    -3.2049475   -1.1446998   -0.8303225 
C    -2.6815027   -2.2065624   -0.1083284 
C    -1.8624231   -1.9542271    0.9830406 
C    -1.5613464   -0.6502502    1.3437997 
C     0.7530686    1.5009037    0.7280462 
O     1.0920154    1.5209135    1.9014282 
N     1.3853016    0.7643441   -0.1998406 
C     2.5260946   -0.0483953    0.1131688 
C     2.1377109   -1.4281037    0.6449981 
C     3.3548382   -0.1832793   -1.1405117 
O     2.9934940    0.1462080   -2.2390527 
O     4.5410769   -0.7471000   -0.8972037 
H     0.0967838    2.7419731   -1.7032612 
H    -0.9822864    1.4959472   -1.5599357 
H    -0.2408929    3.3385218    0.5985084 
H    -1.5027888    1.9047774    2.0520665 
H    -2.5117608    2.5174350    0.7330276 
H    -3.3275873    0.9882583   -1.0234654 
H    -3.8560313   -1.3310884   -1.6760463 
H    -2.9201736   -3.2254831   -0.3878819 
H    -1.4603946   -2.7772955    1.5619558 
H    -0.9248518   -0.4574024    2.2001843 
H     1.1017554    0.8143140   -1.1642325 
H     3.1214131    0.4663763    0.8724494 
H     1.5650930   -1.9794464   -0.1024484 
H     1.5109315   -1.3045167    1.5262966 
H     3.0243499   -2.0018277    0.9125952 
H     4.9968684   -0.8287465   -1.7441852 
C     2.1003709    0.0384874    4.0081944 
O     1.0558039   -0.4317455    4.1737712 
O     3.1643118    0.4715640    3.8767624 
