40
Energy = -1208.902189795
N     1.4457860   -0.3543632    1.6378647 
C     1.0984445   -0.0606658    0.2673667 
C     2.1470909   -0.5138434   -0.7754114 
C     3.3798610    0.3070711   -0.7017682 
C     4.6000608    0.0000307   -0.1641417 
N     5.3657782    1.1274362   -0.3212308 
C     4.5950706    2.0562399   -0.9330755 
N     3.3954844    1.5975352   -1.1734023 
C    -0.1974134   -0.7725961   -0.0691342 
O    -0.4372907   -1.8947295    0.3420866 
N    -0.9984990   -0.0946586   -0.9159700 
C    -2.2131079   -0.6437452   -1.4275218 
C    -3.4656710    0.0656143   -0.8663930 
C    -3.4031358    0.1700467    0.6150379 
C    -3.6466995   -0.7914909    1.5568878 
N    -3.3465968   -0.2087130    2.7572719 
C    -2.9384541    1.0571095    2.5044043 
N    -2.9626176    1.3175951    1.2237159 
C    -2.2141251   -0.5807498   -2.9377023 
O    -1.4361613    0.0378396   -3.6115077 
O    -3.2306629   -1.2836553   -3.4586238 
H     1.2874613   -1.3420551    1.8023236 
H     2.4235831   -0.1516062    1.8020403 
H     0.9599198    1.0180489    0.1532875 
H     1.7262657   -0.4306800   -1.7815409 
H     2.3691092   -1.5687904   -0.6006016 
H     4.9834100   -0.8999642    0.2855090 
H     6.3240026    1.2381429   -0.0445549 
H     4.9581444    3.0415952   -1.1805385 
H    -0.7512335    0.8477927   -1.1702232 
H    -2.2356742   -1.6915848   -1.1206327 
H    -3.5224370    1.0770451   -1.2753285 
H    -4.3506411   -0.4787443   -1.1981784 
H    -3.9691120   -1.8155055    1.4793531 
H    -3.3939473   -0.6506012    3.6569970 
H    -2.6369215    1.7380746    3.2845047 
H    -3.1868489   -1.1709297   -4.4162249 
C     1.0294492    2.1051430   -3.0762780 
O     0.3616541    2.4656655   -2.2001331 
O     1.6755513    1.7593231   -3.9679145 
