30
Energy = -1345.692551981
N     2.7019458    1.3292692    0.7425312 
C     2.5164666    0.3453030   -0.2963886 
C     3.2588304   -0.9391986    0.0532142 
S     5.0498729   -0.7342944    0.1138330 
C     1.0801823   -0.0292174   -0.6792790 
O     0.8570096   -0.8350509   -1.5636779 
N     0.0942026    0.5720904    0.0194520 
C    -1.2907433    0.3723340   -0.3314727 
C    -1.8144540   -0.9941286    0.0838227 
C    -3.0804165   -1.3419357   -0.6444140 
O    -3.3755106   -0.9391851   -1.7376442 
O    -3.8328184   -2.2061991    0.0435146 
C    -2.1575625    1.4682592    0.2460284 
O    -3.2850085    1.3139449    0.6166479 
O    -1.5276338    2.6553751    0.2858357 
H     2.4194499    2.2624502    0.4875613 
H     2.3053997    1.0635997    1.6323308 
H     2.9589926    0.7405535   -1.2153084 
H     3.0577325   -1.6848120   -0.7144663 
H     2.8916201   -1.3334636    1.0051164 
H     5.0233407    0.3638511    0.8858106 
H     0.3379148    1.3202005    0.6432613 
H    -1.3950156    0.4482013   -1.4217040 
H    -1.9674812   -1.0615371    1.1599464 
H    -1.0735370   -1.7427655   -0.2083549 
H    -4.5981035   -2.4105934   -0.5085104 
H    -2.1628558    3.2957270    0.6304075 
C    -1.0406887   -1.7363846   -3.5279743 
O    -0.9889957   -0.7169156   -4.0708862 
O    -1.1017105   -2.7702202   -3.0115169 
