41
Energy = -1046.782552975
N     0.2767150   -1.9221460   -0.5411889 
C     0.4738225   -1.1523354    0.6785759 
C     1.6835995   -0.2234130    0.6754260 
C     3.0062751   -0.9692906    0.6131828 
C     4.2283346   -0.0611801    0.6580778 
C     4.3980944    0.8151325   -0.5777923 
N     5.5877071    1.6479075   -0.6034763 
C    -0.7831860   -0.3670157    1.0499277 
O    -0.7831595    0.4485911    1.9566409 
N    -1.8734529   -0.6623247    0.3225019 
C    -3.1522801   -0.0925045    0.6231912 
C    -3.2999271    1.3439888    0.0518239 
O    -4.3703457    2.0285132    0.6476080 
C    -3.3706408    1.3628624   -1.4624834 
C    -4.2138560   -1.0181735    0.0911460 
O    -4.0148657   -2.0070106   -0.5582088 
O    -5.4534593   -0.5926248    0.3973333 
H     0.5369660   -1.3771845   -1.3536524 
H     0.8458915   -2.7551800   -0.5456442 
H     0.5948413   -1.8680127    1.5004756 
H     1.6421334    0.3945032    1.5751054 
H     1.5849058    0.4600668   -0.1758716 
H     3.0512268   -1.5803291   -0.2962068 
H     3.0496324   -1.6706041    1.4537014 
H     4.1780760    0.5767662    1.5479836 
H     5.1288078   -0.6751686    0.7697945 
H     3.5333562    1.4737362   -0.6930397 
H     4.4116349    0.1773430   -1.4687779 
H     6.4185903    1.0804979   -0.4924242 
H     5.5785510    2.2990373    0.1711659 
H    -1.7994957   -1.4283449   -0.3342250 
H    -3.2720399    0.0056222    1.7069945 
H    -2.4007547    1.8633345    0.3879696 
H    -5.1797333    1.5431194    0.4695793 
H    -3.3683392    2.3931662   -1.8171702 
H    -2.5195544    0.8409062   -1.9032631 
H    -4.2867236    0.8853506   -1.8222912 
H    -6.0709665   -1.2179514   -0.0029120 
C    -0.7814283    2.3142562    4.0287542 
O     0.3424847    2.1258739    4.2308458 
O    -1.9041982    2.5340133    3.8612470 
