44
Energy = -1541.852670734
N     2.9513369    0.1880746   -2.3208163 
C     2.8032254   -0.0066315   -0.8971112 
C     3.3204337    1.2130972   -0.1428726 
C     4.8195134    1.4104748   -0.2918096 
S     5.8295376    0.0593227    0.3453253 
C     5.4100626    0.1262838    2.0920437 
C     1.4198927   -0.3666406   -0.3634476 
O     1.2366548   -0.5893747    0.8245822 
N     0.4233127   -0.4338844   -1.2638562 
C    -0.9176061   -0.7742569   -0.8786254 
C    -1.6569375    0.4514020   -0.2935990 
C    -2.9786939    0.1377657    0.3352191 
C    -3.0362189   -0.5099522    1.5648249 
C    -4.2508033   -0.8271652    2.1484037 
C    -5.4387261   -0.4950645    1.5072415 
O    -6.6565792   -0.7785547    2.0336821 
C    -5.3991465    0.1581692    0.2825883 
C    -4.1771482    0.4657272   -0.2892548 
C    -1.6245020   -1.2914988   -2.1058256 
O    -1.3040383   -1.0108205   -3.2325263 
O    -2.6619147   -2.0705391   -1.8089442 
H     2.7800759   -0.6417226   -2.8677720 
H     2.4062002    0.9591890   -2.6795933 
H     3.4432933   -0.8484540   -0.6079322 
H     3.0471659    1.1147532    0.9077192 
H     2.8088929    2.1085539   -0.5179338 
H     5.1280687    2.3391052    0.1940078 
H     5.0865399    1.4796605   -1.3476069 
H     4.3695245   -0.1400681    2.2732413 
H     6.0495059   -0.5983137    2.5952683 
H     5.6132783    1.1162257    2.5031985 
H     0.5994804   -0.2739908   -2.2419706 
H    -0.8852645   -1.5523954   -0.1141417 
H    -1.7707852    1.1955817   -1.0857233 
H    -0.9747846    0.8654278    0.4512106 
H    -2.1169867   -0.7654543    2.0805481 
H    -4.2756482   -1.3290963    3.1105654 
H    -6.5414114   -1.2204841    2.8767904 
H    -6.3295414    0.4199791   -0.2048084 
H    -4.1566487    0.9774497   -1.2456871 
H    -3.0936997   -2.3061917   -2.6400614 
C     1.0278879    0.0349489    3.5146021 
O     2.0229387    0.6247767    3.4938970 
O     0.0267188   -0.5396831    3.5851517 
