30
Energy = -944.7518450210
N    -0.3902447   -1.2085876    2.3813373 
C     0.2596892   -0.5395489    1.2628954 
C     1.3080319   -1.3599050    0.5027441 
C     2.3387417   -0.5232701   -0.1707269 
C     2.3401673    0.0130261   -1.4283130 
N     3.5103639    0.7181834   -1.5234160 
C     4.1595800    0.5907750   -0.3417068 
N     3.4810197   -0.1491645    0.4958081 
C    -0.8216457   -0.0027404    0.3244212 
O    -0.7189277    0.0032500   -0.8888545 
N    -1.8970200    0.4929331    0.9805923 
C    -3.0483528    0.9504879    0.2786473 
C    -4.1652129   -0.0648018    0.2450338 
O    -4.1057423   -1.1837204    0.6744698 
O    -5.2587546    0.4449618   -0.3349104 
H    -0.7959983   -2.0860737    2.0775784 
H     0.2854276   -1.4185935    3.1028303 
H     0.7628812    0.3441916    1.6712374 
H     0.8095749   -2.0141178   -0.2130440 
H     1.8231510   -1.9894494    1.2312120 
H     1.6105172   -0.0226101   -2.2175926 
H     3.8262625    1.2340303   -2.3240733 
H     5.1168056    1.0505642   -0.1508902 
H    -1.9601076    0.2190087    1.9510266 
H    -2.7582557    1.1586182   -0.7542449 
H    -3.4388597    1.8797058    0.7010387 
H    -5.9234198   -0.2546195   -0.3510437 
C    -2.2839132   -2.6919946   -1.0775054 
O    -1.6534716   -3.0951434   -0.1938952 
O    -2.9093478   -2.3161047   -1.9730343 
