36
Energy = -952.1885963292
N    -1.3257966    2.5799513    0.4809925 
C    -0.6950070    1.2879153    0.6125207 
C    -1.1914907    0.3438890   -0.4869396 
C    -2.6898551    0.0633202   -0.4468218 
C    -3.0892608   -0.7158505    0.7972561 
C    -3.1076686   -0.6827095   -1.7053119 
C     0.8273123    1.3551568    0.5419598 
O     1.4270947    2.2972727    0.0541005 
N     1.4903004    0.2833025    1.0407142 
C     2.8984898    0.1368057    0.7959107 
C     3.3136037   -1.2913576    1.1543882 
O     2.4853002   -2.2445537    0.5406918 
C     3.2151535    0.3591510   -0.6717901 
O     2.5924722   -0.1572173   -1.5677628 
O     4.3037191    1.0955598   -0.8553541 
H    -0.9937222    3.0181571   -0.3709691 
H    -1.0357628    3.1892566    1.2347347 
H    -0.9636272    0.8711190    1.5888187 
H    -0.6464330   -0.6053600   -0.4360444 
H    -0.9292077    0.7912898   -1.4508476 
H    -3.2009761    1.0299598   -0.4258221 
H    -2.8692921   -0.1675308    1.7151528 
H    -2.5631326   -1.6749977    0.8401654 
H    -4.1603932   -0.9276571    0.7961618 
H    -2.6071870   -1.6537291   -1.7686103 
H    -2.8517399   -0.1180723   -2.6044547 
H    -4.1844999   -0.8641151   -1.7166981 
H     0.9784998   -0.5700211    1.2007564 
H     3.4757477    0.8502524    1.3863199 
H     4.3693633   -1.4331303    0.8951687 
H     3.2111551   -1.4314605    2.2320556 
H     2.4323154   -2.0337107   -0.3992092 
H     4.4152943    1.2191127   -1.8072806 
C     1.5949065    2.6529395   -2.8739245 
O     0.4430648    2.5604426   -2.8949409 
O     2.7470638    2.7603151   -2.8930570 
