43
Energy = -1160.067531704
N    -1.9339357    1.7020344   -1.7410311 
C    -1.3432114    2.3679254   -0.5862525 
C    -2.0284858    1.9658987    0.7261900 
C    -1.7193145    0.5744180    1.2747383 
C    -2.1152697   -0.6217373    0.4195982 
C    -3.6102380   -0.8152439    0.2535128 
N    -3.8732630   -1.9662934   -0.5956749 
C     0.1486819    2.0731395   -0.4708057 
O     0.8661272    2.7014409    0.2882400 
N     0.5823877    1.0586912   -1.2394765 
C     1.9288184    0.5714166   -1.1694118 
C     2.1457131   -0.2703467    0.0995238 
C     3.5928907   -0.5988830    0.3981215 
C     3.7469605   -1.3103840    1.7103438 
O     2.8616523   -1.5843858    2.4729489 
O     5.0330240   -1.6226320    1.9522450 
C     2.1854308   -0.2383794   -2.4158974 
O     1.3272351   -0.7185751   -3.1080847 
O     3.4897571   -0.3968571   -2.6649372 
H    -2.9275744    1.5747428   -1.6122566 
H    -1.8050191    2.2452269   -2.5835066 
H    -1.4103119    3.4602916   -0.6570854 
H    -3.1069202    2.1037264    0.5948988 
H    -1.7167690    2.6948530    1.4762289 
H    -2.2084612    0.4891763    2.2509889 
H    -0.6478168    0.5168980    1.4835816 
H    -1.7054769   -1.5323715    0.8642098 
H    -1.6664335   -0.5252608   -0.5716059 
H    -4.0701908    0.1143944   -0.1185460 
H    -4.0587022   -1.0045003    1.2338653 
H    -3.5465402   -1.7922237   -1.5376924 
H    -4.8641965   -2.1557325   -0.6559970 
H    -0.0905855    0.6011885   -1.8384700 
H     2.6174317    1.4209308   -1.1465569 
H     1.7409958    0.3196406    0.9216809 
H     1.5480165   -1.1818951    0.0358793 
H     4.2034779    0.3084773    0.4421124 
H     4.0524179   -1.2210918   -0.3724035 
H     5.0514658   -2.0690717    2.8075436 
H     3.5611737   -0.9570284   -3.4485123 
C    -0.7082702   -2.6761712   -2.1691514 
O    -1.5071681   -2.3046286   -2.9188039 
O     0.0850371   -3.0578991   -1.4192481 
