32
Energy = -986.9137801505
N     1.8214690    1.2994709    1.4512060 
C     0.9637709    0.7885367    0.4030412 
C     1.5865136   -0.4572906   -0.2286445 
C     2.8965545   -0.1352394   -0.9129368 
C     3.5687784   -1.3423459   -1.4892482 
O     3.1712609   -2.4743168   -1.4212264 
O     4.7124286   -1.0202656   -2.1225711 
C    -0.4293693    0.4253155    0.9145937 
O    -0.6287920    0.1178047    2.0762379 
N    -1.4080980    0.4342625   -0.0153749 
C    -2.7310321   -0.0406234    0.2846119 
C    -3.5968369    1.0173294    0.9673911 
C    -3.3663354   -0.5084617   -1.0000828 
O    -2.9062608   -0.3393807   -2.0999973 
O    -4.5298971   -1.1252880   -0.7878841 
H     1.6605171    0.7416088    2.2838883 
H     1.5483808    2.2420651    1.6965487 
H     0.8640004    1.5559123   -0.3717021 
H     1.7478876   -1.2048751    0.5521807 
H     0.8927367   -0.9033771   -0.9435344 
H     2.7531326    0.5845289   -1.7251689 
H     3.5836893    0.3447454   -0.2115878 
H     5.0811071   -1.8463782   -2.4581390 
H    -1.1894314    0.6197763   -0.9817259 
H    -2.6501539   -0.9011292    0.9558749 
H    -4.5802928    0.6162808    1.2097382 
H    -3.7160119    1.8891945    0.3220707 
H    -3.1025421    1.3236310    1.8878813 
H    -4.8824819   -1.3756654   -1.6510835 
C    -0.7217550    0.3074689   -3.9008453 
O    -0.1626530    0.7958180   -3.0091649 
O    -1.2544934   -0.1693704   -4.8053531 
