46
Energy = -1518.394902408
N    -0.5696780    1.2164164   -1.5587478 
C    -0.3081483    0.3501263   -0.4295012 
C    -1.4985767   -0.5666598   -0.1366685 
C    -2.7811834    0.1582000    0.2565969 
C    -3.6287971    0.6050827   -0.9283653 
N    -4.8820313    1.2145722   -0.5445053 
C    -5.9121119    0.4444612   -0.0705257 
N    -5.8368349   -0.8308335   -0.0666142 
N    -6.9756469    1.2140542    0.3967968 
C     0.9219507   -0.5290607   -0.6413762 
O     1.2327617   -0.9475489   -1.7451820 
N     1.6241157   -0.8374102    0.4671540 
C     2.7163429   -1.7739271    0.4400690 
C     3.9995753   -1.1861421   -0.1653275 
C     4.5437887   -0.0077003    0.6197783 
S     5.9537183    0.7999383   -0.1580963 
C     5.1366903    1.6088939   -1.5394524 
C     2.9375152   -2.2531147    1.8533843 
O     2.3669197   -1.8212596    2.8202018 
O     3.8629494   -3.2130546    1.9160133 
H     0.1716852    1.8980678   -1.6580039 
H    -0.5515774    0.6608559   -2.4075036 
H    -0.1433496    0.9814508    0.4510926 
H    -1.2085519   -1.2490975    0.6672019 
H    -1.6756723   -1.1958277   -1.0161140 
H    -2.5362246    1.0270543    0.8783356 
H    -3.3978807   -0.5092145    0.8612493 
H    -3.8688604   -0.2644877   -1.5423704 
H    -3.0749942    1.3141494   -1.5425483 
H    -4.8181374    2.1324363   -0.1379498 
H    -6.7172166   -1.2489198    0.2110334 
H    -7.8109293    0.6834096    0.5773279 
H    -7.1659007    2.0387103   -0.1511652 
H     1.2985194   -0.5560334    1.3787099 
H     2.4347141   -2.6389628   -0.1691683 
H     4.7531729   -1.9717901   -0.2287607 
H     3.7505471   -0.8912236   -1.1845627 
H     4.9072402   -0.3242989    1.6010195 
H     3.7653061    0.7395592    0.7933712 
H     5.8993893    2.1907754   -2.0560605 
H     4.7121731    0.8928939   -2.2419098 
H     4.3604416    2.2890432   -1.1848088 
H     3.9586319   -3.4577854    2.8449034 
C     2.0583162   -0.0493998   -4.2444237 
O     0.9907550    0.2876966   -4.5358477 
O     3.1436097   -0.3628400   -3.9947187 
