45
Energy = -1269.509544333
N     3.2767913    0.9809838    1.3797622 
C     2.6937432    0.6112922    0.1110783 
C     3.6847810   -0.2296184   -0.6949814 
C     4.9675933    0.5267803   -1.0044730 
C     5.8728312    0.7931729    0.1655617 
O     6.4366666    1.8301831    0.3821848 
O     6.0813868   -0.3105912    0.9091715 
C     1.4028323   -0.1902928    0.2638428 
O     1.2191115   -0.9294819    1.2136445 
N     0.5089695   -0.0379724   -0.7400473 
C    -0.6540480   -0.8738793   -0.8603195 
C    -1.9522052   -0.1769566   -0.4352196 
C    -1.9254502    0.2490042    1.0206499 
C    -3.2364982    0.8648721    1.4862885 
N    -4.3523572   -0.0520585    1.4541383 
C    -5.2886499   -0.0747458    0.4443654 
N    -5.2945406    0.5868704   -0.6464461 
N    -6.3352091   -0.9420273    0.7231979 
C    -0.7759713   -1.3346104   -2.2925372 
O    -0.1932742   -0.8451025   -3.2256523 
O    -1.6436845   -2.3388239   -2.4236710 
H     2.7511855    1.7286244    1.8115683 
H     3.2208493    0.1842112    2.0047060 
H     2.4841444    1.5255599   -0.4529809 
H     3.2169377   -0.5350294   -1.6339158 
H     3.9097783   -1.1419305   -0.1375059 
H     4.7557687    1.4899763   -1.4688567 
H     5.5611588   -0.0552645   -1.7170782 
H     6.6840951   -0.0474145    1.6144373 
H     0.7678126    0.5092186   -1.5463115 
H    -0.5004126   -1.7460166   -0.2194973 
H    -2.1107620    0.6940980   -1.0805485 
H    -2.7868863   -0.8576370   -0.6113268 
H    -1.6917768   -0.6145160    1.6489161 
H    -1.1220255    0.9730749    1.1816170 
H    -3.4712709    1.7546103    0.8915087 
H    -3.1189033    1.2150020    2.5139109 
H    -4.6997616   -0.3516974    2.3478811 
H    -4.5416183    1.2627169   -0.6841856 
H    -6.0588289   -1.8259138    1.1205606 
H    -6.9380660   -1.0492894   -0.0764647 
H    -1.7090460   -2.5416497   -3.3654284 
C     1.6332096    1.1081798   -4.3188512 
O     1.7952989    1.5281491   -3.2492541 
O     1.4945147    0.7129042   -5.3927985 
