46
Energy = -1249.651873704
N    -3.6695040   -1.1608982    1.1451549 
C    -2.4919480   -0.5597133    0.5593987 
C    -2.1230585    0.7213791    1.3191570 
C    -2.8978587    1.9146152    0.8016794 
C    -2.4435998    2.3043976   -0.5876078 
O    -1.3429634    1.9878613   -1.0307191 
N    -3.3049907    3.0363724   -1.3107628 
C    -1.2752416   -1.4801144    0.5297107 
O    -1.1371572   -2.4047817    1.3081407 
N    -0.3645762   -1.1501207   -0.4078105 
C     0.9380815   -1.7631380   -0.4412188 
C     1.8202814   -1.3880442    0.7580193 
C     3.2562977   -1.0446347    0.3970100 
C     3.3883321    0.0448739   -0.6730378 
N     2.3411544    1.0439223   -0.6263156 
C     2.3030970    1.9669618    0.3871891 
N     3.1433354    1.9049759    1.3490081 
N     1.3033097    2.9110916    0.2047823 
C     0.7929197   -3.2527736   -0.7128844 
O    -0.0819388   -3.7525816   -1.3611797 
O     1.8239708   -3.9567390   -0.2195155 
H    -3.3783375   -1.6639473    1.9779507 
H    -4.0352590   -1.8702379    0.5222947 
H    -2.7244791   -0.2959110   -0.4768174 
H    -1.0550612    0.9260865    1.2305928 
H    -2.3378622    0.5649560    2.3776017 
H    -3.9700134    1.6991901    0.8007627 
H    -2.7502309    2.7889491    1.4448273 
H    -4.2144731    3.2712455   -0.9606034 
H    -3.0306617    3.3482316   -2.2274028 
H    -0.4894753   -0.2811776   -0.9017522 
H     1.4142687   -1.3876541   -1.3515086 
H     1.8012756   -2.1834605    1.5010502 
H     1.3677108   -0.5128525    1.2246925 
H     3.7552132   -0.7029793    1.3034839 
H     3.7874324   -1.9344551    0.0473335 
H     3.3380025   -0.3978793   -1.6705893 
H     4.3739895    0.5114520   -0.5779001 
H     1.9980608    1.3742057   -1.5116064 
H     2.9402502    2.6012030    2.0570610 
H     1.1417131    3.4948907    1.0069539 
H     0.4465298    2.5680944   -0.2130318 
H     1.6708680   -4.8737916   -0.4767892 
C    -0.3419270    2.5409219   -3.5324999 
O     0.5790582    1.8753249   -3.3221332 
O    -1.2465154    3.2149030   -3.7936487 
