27
Energy = -685.1505521920
N    -2.7538669    0.1259557   -1.1968080 
C    -1.6742352    0.6367783   -0.3918918 
C    -1.9147264    0.3215159    1.0883821 
O    -3.0836291    1.0473039    1.4301485 
C    -2.0652563   -1.1589126    1.3591427 
C    -0.3622489    0.0837850   -0.9371016 
O    -0.2936250   -0.4278639   -2.0403679 
N     0.7259898    0.2402660   -0.1547849 
C     2.0151514   -0.2499176   -0.5589184 
C     2.7153589    0.6734479   -1.5542573 
C     2.8441493   -0.4280765    0.6887117 
O     2.5192086   -0.0579150    1.7860708 
O     4.0071388   -1.0342371    0.4356515 
H    -3.5367200    0.7601163   -1.2005390 
H    -2.4237799   -0.0373473   -2.1386872 
H    -1.5715591    1.7332238   -0.4513839 
H    -1.0764133    0.7174190    1.6809864 
H    -3.4386234    0.6847809    2.2425048 
H    -1.1349500   -1.6892201    1.1459562 
H    -2.3067759   -1.3326682    2.4111544 
H    -2.8539326   -1.5690836    0.7297746 
H     0.6529350    0.5876647    0.7871712 
H     1.8903403   -1.2302746   -1.0288178 
H     2.8775265    1.6584660   -1.1135766 
H     2.0812330    0.7782957   -2.4329495 
H     3.6752063    0.2568995   -1.8573191 
H     4.4862040   -1.0904021    1.2717481 
