34
Energy = -947.1748593255
N    -1.8693609    1.7065610   -1.2719217 
C    -1.2817637    0.8565618   -0.2578003 
C    -2.0202365   -0.4792803   -0.1847751 
C    -3.4767295   -0.3087006    0.1957634 
C    -4.1786467   -1.6416347    0.3477052 
O    -3.5991762   -2.6556712    0.6767583 
N    -5.5149595   -1.6133261    0.1207608 
C     0.1913344    0.5650222   -0.5219466 
O     0.6267905    0.4862066   -1.6647639 
N     0.9625462    0.3697193    0.5583510 
C     2.3325115   -0.0555389    0.4481543 
C     3.2997430    1.0634091   -0.0121506 
C     4.1674261    0.6974739   -1.2073092 
O     5.3754000    0.8088199   -1.1773712 
N     3.4744886    0.2605813   -2.2793581 
C     2.7430603   -0.5911036    1.7986038 
O     2.0793397   -0.4957878    2.7968698 
O     3.9399153   -1.1688522    1.7518022 
H    -1.5040560    2.6471975   -1.1980908 
H    -1.5754290    1.3638789   -2.1805823 
H    -1.3754764    1.3604499    0.7104587 
H    -1.5373049   -1.1448057    0.5329671 
H    -1.9442572   -0.9709632   -1.1592419 
H    -3.5514724    0.1998869    1.1641722 
H    -3.9854550    0.3297169   -0.5283649 
H    -6.0402536   -2.4614020    0.2363279 
H    -5.9831337   -0.7840317   -0.1900738 
H     0.5749093    0.3836578    1.4897706 
H     2.3923205   -0.8822984   -0.2657303 
H     2.6932421    1.9288178   -0.2844130 
H     3.9750794    1.3644514    0.7860185 
H     2.4611152    0.2788574   -2.2842884 
H     3.9864783    0.0432800   -3.1151275 
H     4.1619108   -1.4610533    2.6446257 
