36
Energy = -1023.318098374
N     1.2645366    1.6724852    0.4441338 
C     1.4620527    0.7538762   -0.6700286 
C     2.7356606   -0.1045207   -0.6251267 
C     3.9803204    0.7635688   -0.7034634 
C     2.7667731   -1.0139749    0.5946433 
C     0.2449646   -0.1406563   -0.8743857 
O     0.2107156   -1.0041086   -1.7318436 
N    -0.7962597    0.0988730   -0.0516264 
C    -2.0296368   -0.6189005   -0.2273524 
C    -3.0239668   -0.2664720    0.8198833 
C    -3.6157017   -1.0030883    1.8092432 
N    -4.4754194   -0.2297390    2.5353936 
C    -4.4106766    0.9613214    1.9957887 
N    -3.5490718    0.9950915    0.9531348 
C    -2.6261299   -0.3073553   -1.5992265 
O    -2.5951577    0.7761992   -2.1192445 
O    -3.2506450   -1.3603045   -2.1177338 
H     1.7975121    2.5189517    0.3089716 
H     1.5775910    1.2607744    1.3141775 
H     1.5009860    1.3573714   -1.5819500 
H     2.6878966   -0.7371989   -1.5149671 
H     4.0655445    1.4189774    0.1680719 
H     3.9737773    1.3910553   -1.5978930 
H     4.8809344    0.1477910   -0.7338654 
H     3.6449660   -1.6608442    0.5650280 
H     2.8277425   -0.4453263    1.5280708 
H     1.8845188   -1.6551977    0.6409537 
H    -0.7207593    0.8787085    0.5823770 
H    -1.8443342   -1.6932287   -0.1863742 
H    -3.4628226   -2.0480662    2.0292360 
H    -4.9616864    1.8313091    2.3176209 
H    -3.3280881    1.7893358    0.3726852 
H    -3.6378694   -1.0812205   -2.9568189 
C    -1.2791750    3.1941941   -1.3030559 
O    -2.0733983    3.3086760   -0.4656294 
O    -0.4753828    3.1264407   -2.1272190 
