31
Energy = -1122.499784767
N    -1.4427920   -2.0324309   -2.4111613 
C    -1.0864276   -1.0453679   -1.4178243 
C    -1.7511224   -1.3684093   -0.0642838 
C    -2.8815953   -0.4114969    0.2689889 
S    -2.3370012    1.2810012    0.6104480 
C    -1.7328992    1.0875915    2.2946940 
C     0.4181041   -0.8967050   -1.2142267 
O     1.2153911   -1.7493648   -1.5432849 
N     0.7782765    0.2761870   -0.6173190 
C     2.0992700    0.4556247   -0.0915127 
C     2.4894811    1.9324919   -0.1532993 
O     2.4893472    2.4037132   -1.4708004 
C     2.2202578   -0.0835966    1.3197104 
O     1.3074697   -0.4614725    2.0027627 
O     3.4914886   -0.0769107    1.7369938 
H    -0.9044551   -2.8740932   -2.2344507 
H    -1.1517772   -1.7181288   -3.3284209 
H    -1.4607522   -0.0732708   -1.7550990 
H    -1.0184027   -1.3675010    0.7464078 
H    -2.1515329   -2.3828744   -0.1316292 
H    -3.4569680   -0.7541273    1.1315754 
H    -3.5724079   -0.3358632   -0.5735512 
H    -1.3813812    2.0675891    2.6167223 
H    -0.9040298    0.3829557    2.3495382 
H    -2.5439332    0.7743803    2.9525300 
H     0.0197190    0.8106133   -0.2016351 
H     2.7868708   -0.1151129   -0.7195169 
H     3.4972366    2.0616240    0.2393346 
H     1.8022581    2.5126490    0.4811538 
H     1.6629321    2.1284429   -1.8770765 
H     3.4991753   -0.4281376    2.6361321 
