38
Energy = -1007.496944510
N     0.4536992    1.6256143   -0.3249084 
C     0.1380769    0.3411718   -0.9023039 
C     0.9273030   -0.7867721   -0.2338132 
C     2.4341707   -0.7669622   -0.4643787 
C     3.2238389    0.2408240    0.3569363 
C     4.7270913    0.0941429    0.1660717 
N     5.5578729    1.0272738    0.9086472 
C    -1.3354859   -0.0764105   -0.9209286 
O    -1.7026883   -1.0070836   -1.6282438 
N    -2.1538067    0.6133150   -0.1111618 
C    -3.5814934    0.4336343   -0.0048780 
C    -4.0216896   -1.0019897    0.3631053 
O    -4.1177212   -1.8311130   -0.7477904 
C    -4.0638874    1.4393309    1.0113945 
O    -3.3410423    2.1298974    1.6845309 
O    -5.3919179    1.4858270    1.0841076 
H     0.3853315    1.6410132    0.6827779 
H    -0.0711974    2.3900242   -0.7223888 
H     0.4203161    0.3591168   -1.9604990 
H     0.7172930   -0.7708229    0.8431245 
H     0.5196613   -1.7231172   -0.6182991 
H     2.6295112   -0.6045402   -1.5303603 
H     2.8168596   -1.7690300   -0.2412731 
H     2.9855815    0.1087423    1.4202763 
H     2.9187690    1.2560437    0.0937829 
H     5.0336071   -0.9212195    0.4392222 
H     4.9686357    0.2016364   -0.8965585 
H     5.3214351    1.9794096    0.6594122 
H     5.3808656    0.9402891    1.9015219 
H    -1.7678940    1.3809223    0.4176157 
H    -4.0764360    0.6656469   -0.9555026 
H    -3.3197980   -1.3829368    1.1183147 
H    -5.0121188   -0.9541585    0.8170735 
H    -3.2732139   -1.7524817   -1.2271899 
H    -5.6214008    2.1371949    1.7587150 
C    -1.4031292    0.4499049    3.2511045 
O    -0.4798207    1.0553516    2.9014795 
O    -2.3114877   -0.1689555    3.6061261 
