44
Energy = -1198.867896795
N     4.1812876    0.1689764    1.5128304 
C     2.8861034    0.3849329    0.8866759 
C     3.1053896    1.3201609   -0.3449070 
C     4.6165109    1.5708547   -0.3610786 
C     5.1740705    0.4174768    0.4722409 
C     2.2933753   -0.9225814    0.3931132 
O     2.9575744   -1.8483905   -0.0299329 
N     0.9365792   -0.9641739    0.3992695 
C     0.2433739   -2.0279700   -0.2605544 
C    -1.2502574   -1.9910964    0.0605190 
C    -1.9431401   -0.6938489   -0.2054265 
C    -3.1808968   -0.2968746    0.4026843 
C    -4.0328130   -0.8945604    1.3350953 
C    -5.1766561   -0.2253456    1.7196051 
C    -5.4914873    1.0334434    1.1894835 
C    -4.6697064    1.6493123    0.2661584 
C    -3.5179466    0.9719498   -0.1188454 
N    -2.5279113    1.3211367   -0.9966611 
C    -1.5864759    0.3244015   -1.0493049 
C     0.5093576   -2.0217937   -1.7600430 
O     0.9497772   -1.1011873   -2.3954519 
O     0.1855340   -3.1974018   -2.3019787 
H     4.2981573    0.8470754    2.2533195 
H     2.1992090    0.8297251    1.6105802 
H     2.7792078    0.8282876   -1.2622015 
H     2.5323837    2.2426200   -0.2463914 
H     4.8516174    2.5238709    0.1206876 
H     5.0193086    1.5982283   -1.3739382 
H     5.2649963   -0.4819155   -0.1384446 
H     6.1471444    0.6272055    0.9177169 
H     0.4116645   -0.1334658    0.6158080 
H     0.6452988   -2.9792673    0.0948937 
H    -1.7341668   -2.8049655   -0.4867356 
H    -1.3565730   -2.2338650    1.1215859 
H    -3.8024055   -1.8691751    1.7492245 
H    -5.8456167   -0.6770627    2.4414706 
H    -6.3977322    1.5322730    1.5098610 
H    -4.9171076    2.6221979   -0.1415730 
H    -2.4897585    2.1725565   -1.5236726 
H    -0.7259327    0.4136164   -1.6936467 
H     0.4255236   -3.1598064   -3.2360604 
C     3.8032798   -2.0009763   -2.8613140 
O     4.3094375   -0.9686767   -2.7397182 
O     3.3203602   -3.0398193   -3.0241981 
