37
Energy = -1388.100018438
N     0.6290495   -1.4207391    0.8711032 
C     0.5149075   -0.0226993    0.5439173 
C     1.3124526    0.2964838   -0.7272573 
C     2.7938357    0.1765755   -0.5330054 
C     3.5129137    1.2443355   -0.0030417 
C     4.8787866    1.1456349    0.2101217 
C     5.5489759   -0.0273015   -0.1062511 
C     4.8434972   -1.0961491   -0.6377997 
C     3.4767705   -0.9922820   -0.8482210 
C    -0.8903187    0.5665613    0.3896170 
O    -1.0516373    1.7624237    0.2093711 
N    -1.9143436   -0.3036482    0.4710863 
C    -3.2874664    0.1063130    0.3293388 
C    -3.6754067    0.1345337   -1.1547768 
S    -5.3806926    0.6005565   -1.5099647 
C    -4.1328791   -0.8915270    1.0884661 
O    -3.9040571   -2.0731409    1.0951293 
O    -5.1450073   -0.3295293    1.7410973 
H     0.3161519   -2.0387285    0.1368234 
H     0.2122997   -1.6777703    1.7523478 
H     0.9607510    0.5529786    1.3615773 
H     1.0539186    1.3113021   -1.0310857 
H     0.9791086   -0.3778909   -1.5236679 
H     2.9937332    2.1657082    0.2397429 
H     5.4225992    1.9888644    0.6187489 
H     6.6169672   -0.1056944    0.0568545 
H     5.3588229   -2.0153074   -0.8895574 
H     2.9308338   -1.8323401   -1.2620655 
H    -1.7335464   -1.2850855    0.6046215 
H    -3.4046698    1.1041816    0.7504365 
H    -2.9858596    0.8055030   -1.6651912 
H    -3.5511938   -0.8656885   -1.5737277 
H    -5.2938672    1.8542024   -1.0401824 
H    -5.6585417   -1.0411577    2.1454487 
C    -2.4794729    4.0834332   -0.4207046 
O    -1.4902072    4.6649057   -0.5420412 
O    -3.4986014    3.5414496   -0.3114925 
