28
Energy = -1555.299419872
N     2.0249096   -1.8011608    0.1414426 
C     2.0788460   -0.4906562    0.7686461 
C     2.7925755    0.4570243   -0.1925170 
S     2.8677762    2.1509621    0.4576412 
C     0.6756864    0.0390450    1.0477307 
O     0.4760276    0.8479615    1.9347846 
N    -0.2679384   -0.4236516    0.2069551 
C    -1.6143843    0.0845628    0.1989540 
C    -1.8149969    1.0312118   -0.9837986 
S    -3.4722532    1.7368759   -1.0905521 
C    -2.5669696   -1.0896021    0.0929441 
O    -2.4911448   -1.9210061   -0.7715121 
O    -3.4819621   -1.1095011    1.0614028 
H     1.7645440   -2.5135905    0.8105347 
H     2.9260463   -2.0580402   -0.2380779 
H     2.5978528   -0.4687113    1.7335307 
H     2.2758553    0.4424422   -1.1533801 
H     3.8112605    0.0927573   -0.3372029 
H     3.6822345    2.6033952   -0.5080127 
H     0.0134532   -1.1256394   -0.4636135 
H    -1.7702050    0.6178077    1.1350908 
H    -1.0705638    1.8237106   -0.9288550 
H    -1.6700138    0.4793287   -1.9142744 
H    -3.3746579    2.5015514    0.0077154 
H    -4.0570593   -1.8677511    0.8944652 
C    -0.2219903    3.5813738    1.9988538 
O     0.5735397    3.8131552    2.8018517 
O    -1.0387738    3.3965920    1.1969079 
