33
Energy = -1062.089607309
N     2.4624899   -1.6039086   -0.1135982 
C     2.2286037   -0.4276999    0.7053886 
C     2.7662283    0.8060850   -0.0266667 
C     2.6178320    2.0468732    0.8141198 
O     3.2749472    2.2836757    1.7884374 
O     1.6650338    2.8631201    0.3452344 
C     0.7399805   -0.2226202    0.9757349 
O     0.3648963    0.5021644    1.8808073 
N    -0.0766272   -0.8555646    0.1179722 
C    -1.5068473   -0.7974800    0.2093260 
C    -2.1052876    0.0570782   -0.9319367 
O    -3.4928348   -0.1554277   -1.0520171 
C    -1.7663039    1.5218708   -0.7631209 
C    -2.0566988   -2.2036292    0.1123215 
O    -1.5866586   -3.0562741   -0.5911503 
O    -3.1256143   -2.3910745    0.8892811 
H     3.3853661   -1.5838311   -0.5245342 
H     2.3948271   -2.4501715    0.4360291 
H     2.7038070   -0.4631755    1.6917993 
H     2.2593360    0.9187227   -0.9852719 
H     3.8344325    0.6630707   -0.2028922 
H     1.5375172    3.5580127    1.0047858 
H     0.3546794   -1.4763083   -0.5542891 
H    -1.7675338   -0.3577923    1.1742265 
H    -1.6804700   -0.3219681   -1.8660064 
H    -3.9301897    0.2160524   -0.2821298 
H    -2.1199725    2.0840700   -1.6274877 
H    -0.6933633    1.6824656   -0.6551011 
H    -2.2560090    1.9164312    0.1311075 
H    -3.4457925   -3.2865873    0.7207051 
C    -1.1206966    2.7214453    2.7677264 
O    -0.2160476    3.4335638    2.6527073 
O    -2.0561978    2.0537279    2.8930250 
