38
Energy = -929.4304754755
N     1.2477969    0.9118111    1.7177120 
C     0.6618941    0.4394750    0.4825024 
C     1.4454855   -0.7360038   -0.1080384 
C     2.8776520   -0.4107085   -0.5243651 
C     3.9074439   -0.4854452    0.5922385 
C     5.3285777   -0.1856832    0.1273928 
N     5.9133447   -1.0985725   -0.8419567 
C    -0.7846174   -0.0117878    0.6627601 
O    -1.1498077   -0.5882662    1.6811570 
N    -1.6119616    0.2330003   -0.3663228 
C    -2.9672165   -0.2719514   -0.4128820 
C    -3.9173785    0.4790426    0.4625370 
C    -5.0155338    1.2637477    0.2333769 
N    -5.5146520    1.7381369    1.4130625 
C    -4.7308143    1.2511973    2.3432541 
N    -3.7544799    0.4764692    1.8216228 
C    -3.4065725   -0.2383776   -1.8623970 
O    -2.7848949    0.3003307   -2.7376994 
O    -4.5510882   -0.8873412   -2.0554414 
H     1.0860531    0.2165339    2.4380673 
H     0.7803473    1.7541742    2.0279327 
H     0.6875635    1.2618076   -0.2410477 
H     0.8889580   -1.0983771   -0.9775560 
H     1.4401985   -1.5545197    0.6199712 
H     2.9050784    0.5882733   -0.9758851 
H     3.1632491   -1.1096117   -1.3171437 
H     3.6297877    0.2157731    1.3817281 
H     3.8817299   -1.4886231    1.0369714 
H     5.9883656   -0.1602440    0.9991660 
H     5.3623394    0.8207606   -0.3028417 
H     5.8918825   -2.0484804   -0.4930372 
H     5.3918684   -1.0927538   -1.7079437 
H    -1.2900174    0.7076658   -1.1958639 
H    -2.9524208   -1.3222260   -0.0974426 
H    -5.4798233    1.4991688   -0.7112362 
H    -4.8274606    1.4267240    3.4033521 
H    -2.9724237    0.0218105    2.2767833 
H    -4.7683530   -0.8169293   -2.9937873 
