44
Energy = -1107.618778125
N     2.6940242   -2.9820886   -0.3640950 
C     2.4949697   -2.3142163    0.9004609 
C     3.5592576   -1.2234089    1.1003830 
C     3.4592093   -0.1255622    0.0820065 
C     2.6519743    0.9854378    0.3175886 
C     2.5064953    1.9751758   -0.6415602 
C     3.1704381    1.8730300   -1.8556778 
C     3.9877802    0.7793656   -2.0981828 
C     4.1318912   -0.2092648   -1.1352808 
C     1.1152334   -1.7103952    1.1808030 
O     0.8445609   -1.2365491    2.2723481 
N     0.2351287   -1.7420480    0.1633853 
C    -1.0795779   -1.1779028    0.2784101 
C    -1.0460051    0.3563929    0.0936182 
C    -2.3500605    1.0424621    0.3544697 
C    -3.1372412    1.5276208   -0.6845068 
C    -4.3535188    2.1429680   -0.4453195 
C    -4.8084479    2.2817326    0.8592038 
O    -6.0062424    2.8898669    1.0502709 
C    -4.0340276    1.8070645    1.9115436 
C    -2.8182817    1.1965769    1.6548899 
C    -1.9444520   -1.8207471   -0.7764410 
O    -1.5206164   -2.2657316   -1.8118775 
O    -3.2366073   -1.8157210   -0.4532551 
H     2.0403633   -3.7341681   -0.5238130 
H     2.6793960   -2.3429733   -1.1474585 
H     2.6391876   -3.0484611    1.6988350 
H     4.5364598   -1.7053753    1.0434059 
H     3.4316027   -0.8173702    2.1037267 
H     2.1357133    1.0673072    1.2673483 
H     1.8746155    2.8317947   -0.4388576 
H     3.0590856    2.6471365   -2.6050248 
H     4.5205516    0.6972595   -3.0380046 
H     4.7808214   -1.0575972   -1.3241056 
H     0.5057572   -2.1031697   -0.7361936 
H    -1.4777377   -1.3999038    1.2695483 
H    -0.6856670    0.5724025   -0.9147719 
H    -0.2859706    0.7098820    0.7914098 
H    -2.7897943    1.4245317   -1.7070095 
H    -4.9600019    2.5234906   -1.2572459 
H    -6.1974346    2.9244702    1.9892026 
H    -4.3809512    1.9202984    2.9338348 
H    -2.2193330    0.8351898    2.4840994 
H    -3.7223479   -2.1787029   -1.2049106 
