51
Energy = -1427.571243125
N     1.8391339   -1.9459780   -1.2039921 
C     1.6110842   -0.7788510   -0.3888130 
C     2.0424540    0.4898666   -1.1420757 
C     3.5162286    0.5991615   -1.2898870 
C     4.4318380    0.9788340   -0.2534524 
C     4.2702086    1.3815152    1.0752265 
C     5.3931768    1.6856234    1.8184213 
C     6.6769423    1.5987529    1.2620487 
C     6.8662755    1.2087536   -0.0498297 
C     5.7343480    0.9004802   -0.7959912 
N     5.6053823    0.4940629   -2.0974342 
C     4.2749586    0.3141027   -2.3867660 
C     0.2041936   -0.5591105    0.1633499 
O    -0.0281831    0.3384963    0.9593092 
N    -0.7560691   -1.3943528   -0.2696775 
C    -2.1101248   -1.2817927    0.1948804 
C    -2.8653825   -0.1542074   -0.5462425 
C    -4.1796920    0.2176214    0.0667227 
C    -4.2200953    0.9037195    1.2764277 
C    -5.4266978    1.2380985    1.8668442 
C    -6.6232403    0.8913286    1.2495626 
O    -7.8342051    1.1930041    1.7824043 
C    -6.6004905    0.2139063    0.0379530 
C    -5.3862375   -0.1160584   -0.5383161 
C    -2.7771878   -2.6154264   -0.0241911 
O    -2.3987126   -3.4329331   -0.8239541 
O    -3.8510488   -2.7823983    0.7443327 
H     1.6628850   -2.8176299   -0.7280521 
H     1.3433970   -1.9231236   -2.0836045 
H     2.2442986   -0.8590564    0.5000604 
H     1.5560494    0.4933150   -2.1233345 
H     1.6559115    1.3493997   -0.5909505 
H     3.2818014    1.4622808    1.5127766 
H     5.2837882    2.0004339    2.8488328 
H     7.5376554    1.8445395    1.8718489 
H     7.8602272    1.1462064   -0.4770843 
H     6.3604851    0.3615741   -2.7420154 
H     3.9652178   -0.0188405   -3.3647782 
H    -0.5393747   -2.1488030   -0.8999067 
H    -2.1051589   -1.0433354    1.2601150 
H    -2.1876033    0.7011086   -0.5248214 
H    -2.9925052   -0.4479715   -1.5911150 
H    -3.2939638    1.1867967    1.7655526 
H    -5.4379436    1.7764238    2.8094822 
H    -7.7072949    1.6630692    2.6083471 
H    -7.5379289   -0.0437596   -0.4382089 
H    -5.3789642   -0.6452194   -1.4854143 
H    -4.2498055   -3.6280048    0.5024143 
C    -0.0644324    2.3787380    2.8150920 
O     1.0483615    2.6281872    2.6257297 
O    -1.1801054    2.1676624    3.0396698 
