24
Energy = -795.0634705715
N    -1.2317090   -0.3697145    1.7284347 
C    -1.4636646   -0.8926702    0.3932376 
C    -2.7911412   -0.4590207   -0.2180241 
O    -2.9011018    0.9464882   -0.2360898 
C    -0.3224746   -0.5120140   -0.5483853 
O    -0.4292439   -0.6035485   -1.7637496 
N     0.7950944   -0.0963612    0.0578288 
C     1.9630297    0.2500374   -0.6855665 
C     3.0894139    0.5785752    0.2503936 
O     3.0177486    0.5674002    1.4482388 
O     4.2016566    0.8956200   -0.4219167 
H    -1.6027184    0.5728318    1.7772399 
H    -1.7153101   -0.9219445    2.4218415 
H    -1.4470709   -1.9875968    0.4365808 
H    -2.8931400   -0.8837721   -1.2195493 
H    -3.6061817   -0.8372209    0.4039945 
H    -2.5108125    1.2660999   -1.0538467 
H     0.7977193   -0.0420247    1.0682135 
H     1.7929944    1.1127385   -1.3389166 
H     2.2737820   -0.5634863   -1.3483615 
H     4.8809857    1.0974189    0.2332475 
C    -1.0778931    1.1970448   -3.7283556 
O    -1.8200227    1.7119059   -2.9999191 
O    -0.3518414    0.7280740   -4.4914790 
