42
Energy = -1230.231889890
N    -0.1432424    0.3442450   -2.2033065 
C     0.0185586   -0.7251681   -1.2321723 
C     0.7839026   -0.2380316   -0.0049901 
C     2.2186513    0.1690465   -0.2925507 
C     2.9739052    0.4906344    0.9894370 
N     4.3370068    0.9231695    0.7867293 
C     5.3010721    0.0052791    0.4459647 
N     5.0383361   -1.2430563    0.4160362 
N     6.5156667    0.6103198    0.1363782 
C    -1.3328857   -1.2468939   -0.7621505 
O    -1.4437982   -2.3165871   -0.1864102 
N    -2.3698706   -0.4228696   -0.9938697 
C    -3.6992031   -0.7790284   -0.6042145 
C    -3.9440160   -0.5973273    0.8889325 
C    -3.8914123    0.8396583    1.3084739 
O    -3.9156505    1.7754059    0.5471356 
O    -3.8319374    0.9790035    2.6330749 
C    -4.6821070   -0.0370502   -1.4824738 
O    -4.3992724    0.5537273   -2.4852819 
O    -5.9390321   -0.1726012   -1.0357573 
H    -0.4029660   -0.0206560   -3.1099197 
H     0.7196128    0.8545162   -2.3230210 
H     0.5453882   -1.6031075   -1.6285912 
H     0.2356416    0.6007957    0.4390630 
H     0.7765460   -1.0521139    0.7237547 
H     2.7458887   -0.6389996   -0.8055076 
H     2.2515328    1.0508918   -0.9433599 
H     3.0070080   -0.3990550    1.6194081 
H     2.4537588    1.2739364    1.5480705 
H     4.4511567    1.8267050    0.3584931 
H     5.8748867   -1.7931901    0.2600737 
H     7.2810424   -0.0356388    0.0433821 
H     6.7532103    1.3973756    0.7198289 
H    -2.2002013    0.4308810   -1.5063973 
H    -3.8411021   -1.8463726   -0.8131870 
H    -4.9211334   -0.9937878    1.1740831 
H    -3.1974794   -1.1710799    1.4395167 
H    -3.8225954    1.9287751    2.8269543 
H    -6.5042866    0.3088660   -1.6517114 
C    -3.8439202    4.4156646    1.5766464 
O    -3.8885691    4.9210106    0.5431651 
O    -3.7975761    3.9498350    2.6406750 
