36
Energy = -952.1816745339
N     2.5866364    1.3557802    0.0075322 
C     2.4208204    0.1275712   -0.7551513 
C     3.5927336   -0.8431041   -0.6697263 
O     4.7784440   -0.2676230   -1.1757125 
C     1.1230624   -0.5807258   -0.3855902 
O     0.9243680   -1.7553884   -0.6525714 
N     0.2186033    0.1937868    0.2327219 
C    -1.0660370   -0.3135742    0.6482749 
C    -2.0960670   -0.4287527   -0.4886219 
C    -3.5046856   -0.5592332    0.0778898 
C    -1.9990886    0.7433894   -1.4675809 
C    -2.2567575    2.1206357   -0.8756854 
C    -0.8049218   -1.6001439    1.4367184 
O     0.0146291   -1.6605465    2.3151001 
O    -1.5766696   -2.6272960    1.0907133 
H     3.2436919    1.9750209   -0.4446397 
H     2.9306425    1.1588663    0.9400328 
H     2.3133156    0.4138012   -1.8073212 
H     3.7188347   -1.1797674    0.3661066 
H     3.3759262   -1.7228316   -1.2725400 
H     5.1461199    0.3137230   -0.5101439 
H     0.5081240    1.1367392    0.4384336 
H    -1.4475056    0.3923554    1.3929083 
H    -1.8579705   -1.3363283   -1.0477371 
H    -4.2343420   -0.6164156   -0.7320880 
H    -3.6136331   -1.4545407    0.6869971 
H    -3.7662869    0.3028220    0.6968780 
H    -2.7204124    0.5585763   -2.2690434 
H    -1.0148599    0.7318135   -1.9408282 
H    -3.2567282    2.2008279   -0.4463449 
H    -2.1700864    2.8909936   -1.6436231 
H    -1.5402905    2.3718262   -0.0896275 
H    -1.2501474   -3.3970871    1.5756364 
C     1.7326939   -3.8523050    1.5600674 
O     2.7093554   -3.2537227    1.7033303 
O     0.7772127   -4.4941837    1.4267325 
