44
Energy = -1107.617040858
N     1.9590644   -0.3613263   -1.5779275 
C     1.7359636   -0.9790722   -0.2825528 
C     2.2473656   -0.0614381    0.8347088 
C     3.7271100    0.1663814    0.7561168 
C     4.2527330    1.3559293    0.2670643 
C     5.6228111    1.5509568    0.1582663 
C     6.4967970    0.5443226    0.5434440 
O     7.8444395    0.6719216    0.4646611 
C     5.9899613   -0.6529638    1.0386559 
C     4.6238713   -0.8307507    1.1395310 
C     0.2583744   -1.2443048   -0.0226250 
O    -0.1055504   -1.9602263    0.8924291 
N    -0.5816167   -0.6006954   -0.8572216 
C    -2.0068334   -0.6492688   -0.6657386 
C    -2.4821529    0.4333816    0.3215291 
C    -3.9513156    0.3618894    0.6062979 
C    -4.4531758   -0.6131846    1.4641763 
C    -5.8136627   -0.7106850    1.7046864 
C    -6.6947788    0.1675400    1.0892938 
C    -6.2058367    1.1425058    0.2341356 
C    -4.8427537    1.2365814   -0.0046966 
C    -2.7147567   -0.5203409   -1.9945671 
O    -3.5783003   -1.2427722   -2.3986910 
O    -2.2697720    0.5466585   -2.6893987 
H     1.9428441   -1.0517394   -2.3164541 
H     2.8720192    0.0759513   -1.5983522 
H     2.2317374   -1.9513453   -0.1702803 
H     1.7196096    0.8940435    0.7660254 
H     1.9746316   -0.5218682    1.7856258 
H     3.5799237    2.1536004   -0.0290088 
H     6.0100601    2.4908189   -0.2222132 
H     8.0625598    1.5406672    0.1224113 
H     6.6809338   -1.4282157    1.3442916 
H     4.2409467   -1.7665036    1.5325035 
H    -0.1603682    0.0310486   -1.5236955 
H    -2.2583172   -1.6295726   -0.2633741 
H    -2.2150178    1.4129869   -0.0803473 
H    -1.9072153    0.2778949    1.2367099 
H    -3.7667128   -1.3001137    1.9476979 
H    -6.1883566   -1.4737481    2.3761232 
H    -7.7586859    0.0921662    1.2777168 
H    -6.8867704    1.8331208   -0.2485587 
H    -4.4629077    2.0012278   -0.6738634 
H    -2.7689995    0.5685408   -3.5148353 
