28
Energy = -814.4633303154
N    -3.5301300    0.4435356   -1.2064892 
C    -2.4254058    0.4963185   -0.2763841 
C    -2.6501157   -0.5437762    0.8193526 
O    -1.7997677   -0.3769226    1.9438458 
C    -1.0639093    0.3531811   -0.9700387 
O    -0.9519686    0.4559868   -2.1759121 
N    -0.0074300    0.1333087   -0.1538771 
C     1.2759524   -0.1645568   -0.7134723 
C     2.3464617   -0.1314000    0.3672335 
C     2.5344527    1.2799810    0.8951885 
O     2.5855751    2.2393701    0.1596667 
N     2.6587744    1.3787192    2.2409146 
C     1.2752568   -1.5274608   -1.3880311 
O     0.4810960   -2.4021540   -1.1870738 
O     2.3155446   -1.6527086   -2.2240567 
H    -3.3024720    1.0295903   -2.0014840 
H    -3.5903423   -0.4920059   -1.5941228 
H    -2.4297623    1.4854300    0.2020077 
H    -3.7025937   -0.5031722    1.1125044 
H    -2.4417605   -1.5446794    0.4344109 
H    -2.0731655    0.4132972    2.4130795 
H    -0.2115849   -0.1207065    0.8034178 
H     1.5215789    0.5854302   -1.4672126 
H     2.0993886   -0.8365960    1.1659293 
H     3.2996000   -0.4431070   -0.0653528 
H     2.6595693    0.5733036    2.8367798 
H     2.8623958    2.2796839    2.6361829 
H     2.2644620   -2.5369900   -2.6069066 
