48
Energy = -1239.096333386
N     1.8526284   -1.9653154   -1.2137159 
C     1.6354239   -0.7959512   -0.3974357 
C     2.0659467    0.4675275   -1.1588231 
C     3.5396091    0.5818732   -1.3061968 
C     4.4536250    0.9591174   -0.2675164 
C     4.2910870    1.3435495    1.0662601 
C     5.4111447    1.6538738    1.8111759 
C     6.6944525    1.5896710    1.2508696 
C     6.8856370    1.2148135   -0.0651338 
C     5.7562280    0.9003947   -0.8126840 
N     5.6291907    0.5051945   -2.1175470 
C     4.2998696    0.3148158   -2.4065297 
C     0.2332426   -0.5658713    0.1674973 
O     0.0140830    0.3313498    0.9650558 
N    -0.7337379   -1.3986863   -0.2652920 
C    -2.0856961   -1.2819204    0.2006193 
C    -2.8357783   -0.1452980   -0.5330888 
C    -4.1452301    0.2327982    0.0858304 
C    -4.1753646    0.9230419    1.2930261 
C    -5.3753044    1.2643651    1.8928727 
C    -6.5778219    0.9206713    1.2857766 
O    -7.7832186    1.2304170    1.8262693 
C    -6.5664034    0.2385181    0.0765538 
C    -5.3580509   -0.0984049   -0.5079361 
C    -2.7625158   -2.6093535   -0.0270408 
O    -2.3933705   -3.4236696   -0.8342522 
O    -3.8359504   -2.7751163    0.7434088 
H     1.6712261   -2.8352572   -0.7364496 
H     1.3499872   -1.9391741   -2.0894875 
H     2.2753447   -0.8789251    0.4862471 
H     1.5808195    0.4625503   -2.1408078 
H     1.6755328    1.3298565   -0.6147161 
H     3.3019610    1.3986917    1.5067609 
H     5.3008287    1.9536601    2.8460469 
H     7.5534369    1.8397016    1.8614161 
H     7.8796653    1.1685364   -0.4942728 
H     6.3843680    0.3841137   -2.7642909 
H     3.9921856   -0.0102233   -3.3878394 
H    -0.5218834   -2.1527658   -0.8972273 
H    -2.0793806   -1.0514051    1.2677550 
H    -2.1519231    0.7050776   -0.5088247 
H    -2.9677957   -0.4326223   -1.5790961 
H    -3.2422380    1.2029634    1.7705655 
H    -5.3783871    1.8054445    2.8338874 
H    -7.6485215    1.7022093    2.6500495 
H    -7.5080430   -0.0175037   -0.3919992 
H    -5.3599007   -0.6311666   -1.4529163 
H    -4.2408080   -3.6160674    0.4954759 
