32
Energy = -688.5337317314
N    -3.0198342    1.4485775    1.9099037 
C    -2.6823872    0.3886567    0.9848460 
C    -3.8026915    0.2149168   -0.0329755 
C    -1.3823438    0.6604210    0.2264306 
O    -1.0510559    1.7888445   -0.0835685 
N    -0.6600797   -0.4406656   -0.0916594 
C     0.5327121   -0.3933610   -0.9006884 
C     1.7895893   -0.8217581   -0.1173244 
C     3.0154195   -0.8739369   -1.0188413 
C     2.0098011    0.0721190    1.1048822 
C     2.3253479    1.5286705    0.8036630 
C     0.3614513   -1.2494181   -2.1364607 
O     0.6793862   -0.9424727   -3.2493905 
O    -0.1758939   -2.4502052   -1.8385931 
H    -2.9619086    2.3311696    1.4128055 
H    -2.3248013    1.5036861    2.6440364 
H    -2.5753221   -0.5396683    1.5565673 
H    -4.7387797    0.0101216    0.4856196 
H    -3.9212993    1.1325588   -0.6128119 
H    -3.5927747   -0.6001830   -0.7278110 
H    -1.0042848   -1.3434840    0.1862032 
H     0.6406395    0.6345533   -1.2445014 
H     1.5968200   -1.8359689    0.2532262 
H     2.9245493   -1.6408516   -1.7890896 
H     3.9052007   -1.0991438   -0.4282628 
H     3.1794304    0.0768921   -1.5282229 
H     1.1247049    0.0196055    1.7444616 
H     2.8277909   -0.3680476    1.6836381 
H     1.4994694    2.0207575    0.2875909 
H     2.4971788    2.0758734    1.7320622 
H     3.2252757    1.6322615    0.1949428 
H    -0.2412105   -2.9407206   -2.6669776 
