28
Energy = -909.5144822179
N     2.9860840   -0.3333458    1.3432612 
C     2.0500330   -0.0220948    0.2837643 
C     2.3530564   -0.9545252   -0.8972396 
O     3.6995834   -0.8498751   -1.2529703 
C     0.5996081   -0.1988474    0.7033666 
O     0.2876037   -0.9325071    1.6211037 
N    -0.3109620    0.4747347   -0.0397055 
C    -1.7240323    0.2988998    0.1405285 
C    -2.4229681    1.6149323    0.5002807 
O    -3.7437154    1.4339461    0.9097011 
C    -2.3963262   -0.3605396   -1.0460318 
O    -3.5683411   -0.2432097   -1.3018061 
O    -1.5693891   -1.1017324   -1.7855732 
H     2.5998719   -1.0840367    1.9074349 
H     3.1135705    0.4561238    1.9605536 
H     2.2234418    1.0050237   -0.0505093 
H     1.7488862   -0.6911566   -1.7679648 
H     2.0875117   -1.9811998   -0.6053746 
H     4.1746563   -0.8294864   -0.4111392 
H     0.0175769    1.0283080   -0.8118921 
H    -1.8426406   -0.3920118    0.9829614 
H    -1.8765249    2.0573718    1.3343105 
H    -2.3490692    2.3081847   -0.3517594 
H    -4.1966284    0.9719514    0.1949321 
H    -2.1018273   -1.5060274   -2.4830310 
C    -0.3369373   -2.6067256    3.7651859 
O     0.7466432   -2.5212348    4.1619818 
O    -1.4280366   -2.7158135    3.3979096 
