39
Energy = -1041.770477278
N    -0.0980315   -1.0302946   -0.5820678 
C     0.3538367    0.0564974    0.2711901 
C    -0.2713771    0.0950280    1.6676976 
C    -1.7914208    0.0817322    1.6296705 
C    -2.3972680    1.2978293    0.9366826 
N    -3.7561311    1.0944699    0.4853472 
C    -3.9949335    0.3369693   -0.6281465 
N    -3.0339459   -0.1183462   -1.3451908 
N    -5.3470968    0.1216617   -0.8492425 
C     1.8721355    0.0941061    0.3855364 
O     2.4531620    0.8112373    1.1877286 
N     2.5163781   -0.7050534   -0.4775914 
C     3.9536449   -0.7512532   -0.5458247 
C     4.5640053    0.4846281   -1.1841641 
C     4.5805984   -1.0268312    0.8143003 
O     5.6393949   -0.5942436    1.1722271 
O     3.8662606   -1.9001071    1.5404216 
H    -1.0231831   -0.8084327   -0.9482821 
H    -0.1904982   -1.8809051   -0.0390732 
H     0.1052292    0.9876933   -0.2484178 
H     0.0842361   -0.7755119    2.2295389 
H     0.1059925    0.9735420    2.1934043 
H    -2.1813284    0.0091599    2.6493806 
H    -2.1332969   -0.8100353    1.0990086 
H    -2.3816810    2.1684506    1.5953286 
H    -1.8188775    1.5607556    0.0525364 
H    -4.4623218    1.0345055    1.1992813 
H    -3.3843984   -0.5492220   -2.1925401 
H    -5.9471991    0.8996321   -0.6263556 
H    -5.5643287   -0.2900913   -1.7403362 
H     1.9239542   -1.2361744   -1.0997466 
H     4.2073046   -1.6320151   -1.1459791 
H     4.1672309    0.6096194   -2.1919984 
H     5.6473981    0.3898447   -1.2343997 
H     4.3240515    1.3662372   -0.5915306 
H     4.3477112   -2.0142930    2.3683027 
C     1.9478264    3.5617384    1.0216861 
O     0.8067383    3.4157870    1.1631150 
O     3.0750625    3.7619499    0.8680832 
