50
Energy = -1347.825410377
N     2.6317082   -2.4734524   -2.4525515 
C     2.1768766   -1.4868790   -1.4978514 
C     2.6243510   -0.0903336   -1.9359300 
C     4.1173680    0.1522417   -1.7818455 
C     4.5859402    0.2895546   -0.3361178 
N     3.8934329    1.3281606    0.4011937 
C     2.7478421    1.0877440    1.1142589 
N     2.3703461   -0.0227493    1.6391652 
N     1.9176360    2.1805572    1.2365912 
C     0.6605721   -1.4687517   -1.3199361 
O    -0.0944880   -1.7895121   -2.2280880 
N     0.2252942   -1.0522284   -0.1212916 
C    -1.1806164   -0.8777101    0.1435021 
C    -1.7292770    0.4187403   -0.4645245 
C    -3.0066301    0.8994397    0.1603640 
C    -3.0186255    1.3680175    1.4726769 
C    -4.1770720    1.8266469    2.0728247 
C    -5.3667031    1.8281215    1.3551979 
O    -6.4809087    2.2905002    1.9782597 
C    -5.3770607    1.3674599    0.0453884 
C    -4.2067029    0.9074430   -0.5377941 
C    -1.9090422   -2.1576984   -0.2558673 
O    -1.5532462   -3.2485364    0.1012217 
O    -2.9994789   -1.9513739   -0.9937949 
H     2.0451258   -2.4012641   -3.2775861 
H     2.4632429   -3.4035350   -2.0896671 
H     2.6230381   -1.7204000   -0.5280338 
H     2.3416527    0.0291042   -2.9855972 
H     2.0627290    0.6676109   -1.3832026 
H     4.3896263    1.0649509   -2.3230190 
H     4.6670975   -0.6670478   -2.2524544 
H     5.6566384    0.5045678   -0.3146022 
H     4.4628421   -0.6512082    0.2006752 
H     3.9266226    2.2301980   -0.0454811 
H     3.0615970   -0.7505248    1.5130550 
H     1.2739094    2.0984979    2.0054136 
H     2.3367010    3.0908577    1.1567598 
H     0.8959044   -0.7537681    0.5890637 
H    -1.2859473   -0.8280002    1.2311686 
H    -1.8475664    0.2840678   -1.5394138 
H    -0.9519492    1.1740155   -0.3176881 
H    -2.0949451    1.3811073    2.0430615 
H    -4.1767949    2.1911660    3.0921637 
H    -7.2244088    2.2344048    1.3754879 
H    -6.3035775    1.3652174   -0.5204999 
H    -4.2284104    0.5376195   -1.5555276 
H    -3.3337489   -2.8237553   -1.2385360 
C    -0.8832995   -4.5938825   -2.3972885 
O     0.1884124   -4.8936410   -2.0847296 
O    -1.9600129   -4.3425899   -2.7401480 
