30
Energy = -873.6130513324
N    -3.1069213   -1.6716647   -0.1320220 
C    -2.9285910   -0.2347456   -0.2271566 
C    -3.9510019    0.4545759    0.6705019 
O    -3.8364539    0.0454203    2.0077571 
C    -1.5253427    0.1951508    0.1825960 
O    -1.1753619    0.2729215    1.3562017 
N    -0.6671760    0.4390023   -0.8253645 
C     0.6980503    0.8159895   -0.5747195 
C     1.5595916   -0.4020848   -0.2050980 
C     2.8498188   -0.0517078    0.5057696 
C     3.6425843   -1.2738775    0.8648767 
O     3.3619545   -2.4041142    0.5729882 
O     4.7446611   -0.9576297    1.5655834 
C     1.2028780    1.5061755   -1.8185751 
O     0.6396926    1.4889058   -2.8801179 
O     2.3691447    2.1282220   -1.6213233 
H    -2.3397051   -2.1766623   -0.5545274 
H    -3.1565229   -1.9315949    0.8457178 
H    -3.1137915    0.0791322   -1.2608029 
H    -4.9506549    0.1783854    0.3303017 
H    -3.8433621    1.5434053    0.5699157 
H    -2.9060439    0.1744050    2.2428573 
H    -0.9756982    0.4517699   -1.7843878 
H     0.7200143    1.5249053    0.2584519 
H     1.7608188   -0.9999087   -1.0966026 
H     0.9499850   -1.0190563    0.4550086 
H     2.6513810    0.5032139    1.4273096 
H     3.4938972    0.5940153   -0.0951283 
H     5.2003166   -1.7869172    1.7555261 
H     2.6319386    2.5140676   -2.4669372 
