36
Energy = -802.9954296158
N     0.9414892   -0.8528659    1.7553737 
C     0.9416080    0.0961711    0.6656069 
C     1.9030020   -0.3545629   -0.4319197 
C     3.3509533   -0.5392423    0.0107090 
C     4.1763366   -1.0604260   -1.1568780 
C     3.9467921    0.7471167    0.5617152 
C    -0.3962257    0.4177781    0.0031503 
O    -0.5134101    1.3451965   -0.7768610 
N    -1.4343060   -0.3927506    0.3053242 
C    -2.7250631   -0.2140575   -0.3046315 
C    -3.5354474    0.9608656    0.2724488 
O    -4.8378488    0.9374603   -0.2592142 
C    -3.6566484    0.8663311    1.7745831 
C    -2.6123769   -0.1028123   -1.8189260 
O    -3.3032521    0.6036216   -2.5061179 
O    -1.7198144   -0.9535599   -2.3305747 
H     0.8004332   -1.8076435    1.4579974 
H     0.3110935   -0.6189751    2.5070882 
H     1.2880841    1.0584880    1.0539084 
H     1.5290118   -1.2980520   -0.8501732 
H     1.8535109    0.3816042   -1.2382471 
H     3.3696272   -1.2875373    0.8092799 
H     5.2101552   -1.2448851   -0.8577378 
H     3.7683466   -1.9949342   -1.5493487 
H     4.1917076   -0.3350905   -1.9755421 
H     3.4374664    1.0757819    1.4689955 
H     3.8817869    1.5529652   -0.1753221 
H     5.0006877    0.6086423    0.8114612 
H    -1.2811123   -1.1582272    0.9348452 
H    -3.3102439   -1.1217955   -0.1204144 
H    -3.0173302    1.8870993   -0.0012302 
H    -4.7417942    1.0666751   -1.2101309 
H    -4.1482751   -0.0670107    2.0607692 
H    -4.2667740    1.6926995    2.1381121 
H    -2.6811979    0.9187263    2.2573598 
H    -1.7208719   -0.8125944   -3.2853584 
