33
Energy = -1133.212751282
N     2.5584848   -0.9772909    0.3196449 
C     1.9963279    0.2889779    0.7134594 
C     2.3988878    1.3630747   -0.2931531 
C     3.8889007    1.4555784   -0.4571715 
O     4.4756275    1.3831893   -1.5008088 
O     4.5101178    1.6635157    0.7152597 
C     0.4829941    0.3722457    0.9230202 
O    -0.0475797    1.4131523    1.2954312 
N    -0.2112886   -0.7465887    0.6892952 
C    -1.6374627   -0.8294173    0.9100860 
C    -2.4501116   -0.1698980   -0.1549506 
C    -3.2458642   -0.6410507   -1.1647278 
N    -3.7500883    0.3953038   -1.8965300 
C    -3.2658992    1.4795559   -1.3417007 
N    -2.4800536    1.1928649   -0.2811005 
C    -1.9840098   -2.2995682    1.0320556 
O    -1.2262771   -3.1897190    0.7542049 
O    -3.2164442   -2.4879748    1.4924959 
H     2.4279102   -1.7191963    0.9893966 
H     2.2887445   -1.2779445   -0.6056520 
H     2.4270760    0.5642316    1.6805645 
H     1.9736505    1.1528927   -1.2754955 
H     2.0225707    2.3274346    0.0507483 
H     5.4546854    1.7061042    0.5239015 
H     0.2520938   -1.5910924    0.3927129 
H    -1.8620368   -0.3533949    1.8712658 
H    -3.4911017   -1.6665698   -1.3938332 
H    -3.4518158    2.4919410   -1.6645345 
H    -1.9385253    1.8306762    0.2845941 
H    -3.3699861   -3.4406026    1.5305568 
C    -0.2231038    4.1958883    0.9437490 
O     0.8728855    4.4120852    1.2359411 
O    -1.3262737    4.0168603    0.6380378 
