33
Energy = -1086.607180871
N     1.4184101   -0.9215266    2.0359511 
C     0.9292040   -0.2018541    0.8739990 
C     1.8774159   -0.4134349   -0.3178323 
C     1.3026913    0.1498061   -1.6095370 
C     3.2491655    0.1759991   -0.0015621 
C     4.3496504   -0.2844044   -0.9420416 
C    -0.4757340   -0.6566322    0.5011284 
O    -0.7660416   -1.8383435    0.4285949 
N    -1.3801587    0.3224841    0.2685160 
C    -2.6831021    0.0220633   -0.2531290 
C    -3.6462668   -0.4999129    0.8118495 
S    -4.0568289    0.7134682    2.0857865 
C    -3.2056002    1.2678295   -0.9309563 
O    -2.5942636    2.2967668   -1.0277055 
O    -4.4294516    1.0849409   -1.4296613 
H     1.2252248   -1.9080405    1.8999036 
H     0.9115478   -0.6419184    2.8656222 
H     0.9140473    0.8679278    1.1131806 
H     1.9826503   -1.4997236   -0.4318704 
H     0.3732608   -0.3454983   -1.8957096 
H     2.0032057    0.0201686   -2.4345903 
H     1.1008407    1.2212693   -1.5158386 
H     3.1732933    1.2700125   -0.0270637 
H     3.5066053   -0.0973149    1.0231739 
H     4.4490659   -1.3725595   -0.9207546 
H     4.1627338    0.0103353   -1.9765888 
H     5.3127616    0.1400947   -0.6529298 
H    -1.0837538    1.2825491    0.1870743 
H    -2.5929560   -0.7633580   -1.0146768 
H    -4.5943205   -0.7682993    0.3471552 
H    -3.2169175   -1.3953046    1.2567157 
H    -2.8135188    0.8426495    2.5724778 
H    -4.7029603    1.9200611   -1.8287813 
