46
Energy = -1050.890129363
N     1.1211518    2.1503076   -0.1653527 
C     0.8929620    0.7370244   -0.3394364 
C     1.2096346   -0.0141060    0.9638758 
C     2.6629424   -0.0669344    1.2660640 
C     3.6201341   -0.9077550    0.6077310 
C     3.5228299   -1.8779323   -0.3934810 
C     4.6701496   -2.5235833   -0.8087218 
C     5.9166334   -2.2212745   -0.2431899 
C     6.0430780   -1.2683082    0.7491359 
C     4.8864526   -0.6177089    1.1640890 
N     4.6974401    0.3529889    2.1113070 
C     3.3643940    0.6793933    2.1666627 
C    -0.4834556    0.2842584   -0.8288071 
O    -0.6731205   -0.8685350   -1.1751382 
N    -1.4548428    1.2232987   -0.8203445 
C    -2.7629977    0.9827673   -1.3617018 
C    -3.8380048    0.8260084   -0.2775512 
C    -3.6288739   -0.3710985    0.6437528 
C    -4.5982507   -0.2867354    1.8142076 
C    -3.7811740   -1.6924684   -0.0945101 
C    -3.1242409    2.1426620   -2.2575933 
O    -2.5584776    3.2042302   -2.2633241 
O    -4.1817641    1.8745733   -3.0300158 
H     1.0032458    2.6905548   -1.0091959 
H     0.5781553    2.5533188    0.5847737 
H     1.5861815    0.3745013   -1.1038722 
H     0.8110738   -1.0262091    0.8672457 
H     0.6639045    0.4677248    1.7822962 
H     2.5624517   -2.1195399   -0.8347975 
H     4.6104217   -3.2778418   -1.5836374 
H     6.7983937   -2.7456579   -0.5905676 
H     7.0087760   -1.0394631    1.1844026 
H     5.4153412    0.7557611    2.6819358 
H     3.0123790    1.4370156    2.8488755 
H    -1.1874420    2.1859369   -0.6937926 
H    -2.7138261    0.0720019   -1.9628319 
H    -4.8140790    0.7418175   -0.7645744 
H    -3.8543021    1.7463627    0.3164028 
H    -2.6092160   -0.3167435    1.0404866 
H    -5.6338843   -0.3296248    1.4644538 
H    -4.4735026    0.6435183    2.3734124 
H    -4.4489627   -1.1181500    2.5057629 
H    -4.7729206   -1.7674722   -0.5508926 
H    -3.6703230   -2.5308098    0.5961388 
H    -3.0244567   -1.8105228   -0.8703553 
H    -4.3701092    2.6722485   -3.5400273 
