24
Energy = -968.7626031700
N    -1.6357579   -1.5798578   -1.1640170 
C    -2.0048890   -0.3129781   -0.5520954 
C    -2.6209861   -0.5926559    0.8199167 
S    -3.4601076    0.8204876    1.5726809 
C    -0.7766442    0.5721351   -0.3630487 
O    -0.8745681    1.7768869   -0.1828846 
N     0.3946217   -0.0817885   -0.3645954 
C     1.6393442    0.6002639   -0.1533209 
C     1.9123603    0.8789512    1.3244070 
C     2.7416276   -0.2350495   -0.7557781 
O     2.6126702   -1.3588510   -1.1603605 
O     3.9085990    0.4190211   -0.7686034 
H    -1.4256139   -1.4619452   -2.1464768 
H    -2.3925097   -2.2461533   -1.0953872 
H    -2.7202361    0.2791666   -1.1336428 
H    -3.3964660   -1.3538465    0.7063264 
H    -1.8608953   -0.9973013    1.4905910 
H    -2.5153971    1.7227015    1.2512294 
H     0.3917357   -1.0738714   -0.5590853 
H     1.6062367    1.5574672   -0.6820132 
H     1.9675412   -0.0552339    1.8857262 
H     1.0964453    1.4817858    1.7202994 
H     2.8473342    1.4238838    1.4487197 
H     4.5657550   -0.1831184   -1.1388871 
