34
Energy = -1633.868713424
N    -3.5103744   -0.1529683   -0.0369582 
C    -2.7123481    0.8484821   -0.7131264 
C    -2.5915379    2.1049793    0.1451350 
S    -4.1723057    2.9199933    0.4908341 
C    -1.2893226    0.3669794   -0.9708451 
O    -0.5580314    0.9623499   -1.7467081 
N    -0.9163266   -0.7047167   -0.2583395 
C     0.4111974   -1.2487323   -0.3326277 
C     1.3957159   -0.4219392    0.5154915 
C     2.8602903   -0.7704636    0.3241156 
S     3.9739850    0.3687383    1.1686870 
C     3.8491992    1.8053538    0.0966487 
C     0.3395768   -2.6830010    0.1310409 
O    -0.5566268   -3.1437368    0.7852716 
O     1.4072693   -3.3932948   -0.2485902 
H    -3.7845245   -0.8864063   -0.6774276 
H    -4.3650565    0.2752991    0.2986094 
H    -3.1062155    1.1472527   -1.6925349 
H    -2.1017522    1.8738892    1.0915627 
H    -1.9776194    2.8321108   -0.3843411 
H    -4.4577298    2.2677960    1.6270470 
H    -1.5905751   -1.1195253    0.3711005 
H     0.7489734   -1.2246382   -1.3719468 
H     1.1225537   -0.5031910    1.5703642 
H     1.2248404    0.6146288    0.2204318 
H     3.0930052   -1.7529112    0.7345895 
H     3.1206539   -0.7987949   -0.7365217 
H     4.1962602    1.5687716   -0.9100095 
H     2.8357221    2.2050525    0.0575512 
H     4.5007572    2.5698036    0.5185557 
H     1.2994873   -4.2814640    0.1149982 
C     1.8865694    1.5606655   -2.9175497 
O     1.6477605    2.6885521   -2.8461575 
O     2.1771279    0.4424208   -3.0039363 
