42
Energy = -1353.644947360
N     1.4682911   -1.4337402    2.6513382 
C     1.3911399   -0.7443576    1.3860697 
C     2.4870888   -1.2515190    0.4427733 
C     3.8251170   -0.5969181    0.7358916 
S     3.8819234    1.1578902    0.3134904 
C     3.8747375    1.0640432   -1.4832360 
C     0.0495990   -0.8650660    0.6792219 
O    -0.7088805   -1.8055181    0.8465559 
N    -0.2200114    0.1528214   -0.1677987 
C    -1.2791137    0.0905936   -1.1362005 
C    -2.3693950    1.1527111   -0.9413495 
C    -3.3256102    0.9380123    0.2356477 
C    -4.0586979   -0.3932562    0.1418640 
C    -2.6812524    1.1041554    1.6062359 
C    -0.6707485    0.2262480   -2.5153041 
O     0.4542636    0.5896741   -2.7381341 
O    -1.5379735   -0.0877989   -3.4832194 
H     1.0927983   -2.3700046    2.5494866 
H     0.8958561   -0.9705427    3.3443940 
H     1.5782045    0.3211308    1.5585060 
H     2.5692758   -2.3356095    0.5665873 
H     2.2111406   -1.0751286   -0.5998315 
H     4.6387691   -1.1039047    0.2128997 
H     4.0345876   -0.6510678    1.8061823 
H     4.7141593    0.4647469   -1.8385016 
H     3.9953160    2.0832854   -1.8490071 
H     2.9384877    0.6690258   -1.8766366 
H     0.5092577    0.8291365   -0.3354503 
H    -1.7242820   -0.9042358   -1.0627299 
H    -1.8823080    2.1289904   -0.8472631 
H    -2.9649765    1.1821979   -1.8569452 
H    -4.0709191    1.7353938    0.1309162 
H    -4.5246415   -0.5281979   -0.8374045 
H    -3.3818555   -1.2320056    0.3210101 
H    -4.8459510   -0.4493122    0.8961845 
H    -3.4533255    1.1601729    2.3766322 
H    -2.0411058    0.2561828    1.8499192 
H    -2.0828833    2.0160283    1.6645421 
H    -1.0844190    0.0450406   -4.3249429 
C    -1.4307727   -4.1868395    2.0487445 
O    -0.3875555   -4.3228315    2.5340675 
O    -2.4859927   -4.0960942    1.5870684 
