34
Energy = -1022.102525515
N     1.5518142   -1.1080600    1.6871229 
C     1.4692241    0.2703195    1.2495187 
C     2.2452861    0.4614486   -0.0110722 
C     2.8997025   -0.4027704   -0.8487126 
N     3.4608043    0.2778674   -1.8960828 
C     3.1481988    1.5324654   -1.7007092 
N     2.4157071    1.6982799   -0.5727756 
C     0.0305500    0.7415216    1.0209564 
O    -0.2923093    1.8645640    1.3918359 
N    -0.8452344   -0.0565485    0.3917373 
C    -2.1800694    0.4609631    0.1451831 
C    -2.8707377   -0.6706485   -0.6237288 
C    -1.7103818   -1.3590905   -1.3287179 
C    -0.6104254   -1.3326509   -0.2796169 
C    -2.9508100    0.8320745    1.3897902 
O    -3.8188993    1.6582647    1.4070464 
O    -2.6287709    0.0802717    2.4531700 
H     1.1097268   -1.2140528    2.5900740 
H     2.5220827   -1.3759264    1.7882940 
H     1.8407695    0.9886879    1.9931436 
H     2.9935136   -1.4725622   -0.7513853 
H     3.4237635    2.3594983   -2.3363786 
H     2.0430558    2.5636421   -0.2113057 
H    -2.1287005    1.3744823   -0.4515141 
H    -3.3441298   -1.3609866    0.0787221 
H    -3.6379283   -0.2879431   -1.2935656 
H    -1.4035339   -0.7818032   -2.2042728 
H    -1.9486652   -2.3705931   -1.6559629 
H     0.3905426   -1.3676522   -0.7000611 
H    -0.7095205   -2.1597476    0.4268575 
H    -3.1905537    0.3836814    3.1765866 
C     0.4336675    4.5000289    1.4296531 
O     1.2583277    4.3004610    0.6363012 
O    -0.3669432    4.7560420    2.2168853 
