36
Energy = -1125.887049242
N     1.1094734   -1.8882270   -0.6835806 
C     1.3622384   -1.1101994    0.5209923 
C     2.5402053   -0.1427714    0.4306497 
C     3.8708085   -0.8577917    0.2994599 
S     5.3009376    0.2294976    0.1502271 
C     5.0517016    0.8673311   -1.5104309 
C     0.1129215   -0.3504498    0.9799925 
O     0.1627574    0.4595799    1.8874616 
N    -1.0093052   -0.6714976    0.3099378 
C    -2.2974283   -0.1377670    0.6568906 
C    -2.8100957    0.8762527   -0.3857874 
C    -4.2129567    1.3643512   -0.0569411 
C    -1.8434090    2.0443284   -0.4944782 
C    -3.2624359   -1.2970561    0.7737136 
O    -3.3022434   -2.2199932    0.0050040 
O    -4.0896174   -1.1823671    1.8195166 
H     1.6624733   -2.7313612   -0.7075136 
H     1.3318658   -1.3541784   -1.5137952 
H     1.5586797   -1.8184642    1.3342445 
H     2.3773167    0.5169120   -0.4292469 
H     2.5414675    0.4925921    1.3160722 
H     3.8755983   -1.5475121   -0.5498278 
H     4.0645393   -1.4538061    1.1954354 
H     4.1545795    1.4821384   -1.5830406 
H     5.0056485    0.0553115   -2.2381484 
H     5.9150202    1.4908235   -1.7406598 
H    -0.9345977   -1.4163858   -0.3696584 
H    -2.1974934    0.3593420    1.6233789 
H    -2.8388077    0.3478285   -1.3458042 
H    -4.2412656    1.8314674    0.9306969 
H    -4.5310030    2.1096285   -0.7876587 
H    -4.9479756    0.5582264   -0.0660305 
H    -0.8356154    1.7121446   -0.7432876 
H    -1.7883145    2.5909546    0.4495492 
H    -2.1740409    2.7366631   -1.2708813 
H    -4.6816270   -1.9453456    1.7938487 
