31
Energy = -704.5625061963
N     0.5760496    1.6144936   -0.6762245 
C     0.4677010    0.8721042    0.5605835 
C    -0.6278168   -0.1851583    0.4488051 
C    -2.0153670    0.3997163    0.2555332 
C    -3.0817969   -0.6684714    0.0908647 
C    -4.4719305   -0.0915659   -0.0911391 
N    -5.4590678   -1.1531475   -0.2177313 
C     1.7333949    0.2027459    1.1002928 
O     1.7652140   -0.2963658    2.2105074 
N     2.8017542    0.1877184    0.2766935 
C     4.0382687   -0.4059663    0.6744072 
C     5.0639738   -0.1837441   -0.3974009 
O     4.8632782    0.4048798   -1.4264420 
O     6.2416734   -0.7237889   -0.0742563 
H     0.7431672    1.0214359   -1.4771908 
H     1.2652035    2.3509479   -0.6470064 
H     0.1746946    1.5740715    1.3488442 
H    -0.3845337   -0.8506100   -0.3902259 
H    -0.5975062   -0.7982576    1.3515384 
H    -2.0128506    1.0656220   -0.6115468 
H    -2.2582746    1.0263147    1.1215298 
H    -3.0906288   -1.3367376    0.9571549 
H    -2.8378446   -1.2945077   -0.7769008 
H    -4.4588686    0.6059577   -0.9436264 
H    -4.7291786    0.5028678    0.7910859 
H    -6.3900145   -0.7694033   -0.3089717 
H    -5.2849028   -1.6951799   -1.0546145 
H     2.7742082    0.6343392   -0.6246056 
H     3.9387839   -1.4817094    0.8527481 
H     4.4049350    0.0160338    1.6155139 
H     6.8481817   -0.5445350   -0.8034199 
