36
Energy = -857.1375452354
N    -0.9352883   -0.0927820   -2.9575610 
C    -1.2274627    0.6617710   -1.7559235 
C    -2.1877165   -0.1487528   -0.8618187 
C    -1.4706265   -1.2741585   -0.1252663 
C    -2.9769801    0.7465550    0.0892367 
C    -4.0627052    0.0121981    0.8581857 
C    -0.0296280    1.1567035   -0.9452093 
O    -0.1393159    2.0354883   -0.1028814 
N     1.1461581    0.5529427   -1.1997514 
C     2.3536398    0.9193340   -0.5207852 
C     2.3651623    0.4781448    0.9374038 
C     2.2915259   -1.0267757    1.0562665 
O     2.6967695   -1.7623449    0.1785266 
N     1.7721010   -1.4908333    2.2147715 
C     3.5155701    0.3836248   -1.3293799 
O     3.4216447   -0.0641996   -2.4385960 
O     4.6800319    0.5472584   -0.6938296 
H    -0.2678983    0.3661062   -3.5607287 
H    -0.6128495   -1.0305719   -2.7641441 
H    -1.7532619    1.5740431   -2.0531867 
H    -2.8972549   -0.5964909   -1.5672662 
H    -0.8331823   -1.8686273   -0.7834730 
H    -0.8369955   -0.8774308    0.6720996 
H    -2.1852692   -1.9601941    0.3295774 
H    -3.4342107    1.5498686   -0.4966237 
H    -2.2864358    1.2373680    0.7791011 
H    -4.7412974   -0.5148200    0.1817541 
H    -3.6489084   -0.7235091    1.5503340 
H    -4.6598553    0.7103825    1.4473287 
H     1.2326607   -0.1171978   -1.9455188 
H     2.4474078    2.0121719   -0.5245581 
H     1.5296798    0.9647439    1.4425771 
H     3.2876952    0.8131276    1.4172445 
H     1.7038922   -2.4839306    2.3487059 
H     1.3785471   -0.8761889    2.9015013 
H     5.3649564    0.1870760   -1.2698127 
