38
Energy = -991.2067861608
N     4.3761237    0.7914592    1.7522549 
C     3.3984071    0.9602765    0.7084088 
C     3.6514950   -0.0599689   -0.4224497 
O     3.4559123   -1.3753462    0.0400873 
C     5.0571742    0.0408698   -0.9680330 
C     1.9655506    0.8007734    1.2151358 
O     1.7010068    0.4708286    2.3528937 
N     0.9785482    1.0198321    0.2998667 
C    -0.3398611    0.5127618    0.5655693 
C    -1.2297081    0.7615640   -0.6587124 
C    -2.6406316    0.2811674   -0.5018910 
C    -3.0571805   -0.9165776   -1.0738644 
C    -4.3468529   -1.3877689   -0.9055788 
C    -5.2535065   -0.6555702   -0.1500490 
O    -6.5060500   -1.1534397   -0.0108050 
C    -4.8566483    0.5463360    0.4250292 
C    -3.5623986    1.0035090    0.2461947 
C    -0.2661801   -0.9772105    0.8694777 
O     0.5159917   -1.7361006    0.3532664 
O    -1.1937490   -1.3636465    1.7355823 
H     4.3988444   -0.1930271    1.9961781 
H     4.0612183    1.2666567    2.5884306 
H     3.4913919    1.9641405    0.2738556 
H     2.9507050    0.1542053   -1.2429601 
H     2.5100508   -1.5422441    0.1457879 
H     5.2534296    1.0461737   -1.3443817 
H     5.7826817   -0.1758816   -0.1857480 
H     5.1859852   -0.6739031   -1.7809415 
H     1.2474175    1.0977504   -0.6663414 
H    -0.7615557    1.0079754    1.4410243 
H    -0.7682479    0.2701425   -1.5206716 
H    -1.2115161    1.8378580   -0.8495741 
H    -2.3558906   -1.4971593   -1.6636160 
H    -4.6671902   -2.3188740   -1.3549922 
H    -7.0281942   -0.5578437    0.5296904 
H    -5.5622543    1.1260510    1.0114054 
H    -3.2676074    1.9431442    0.7009260 
H    -1.1063107   -2.3188133    1.8481450 
