33
Energy = -1086.599215409
N     3.4710869   -1.4805016   -0.0616039 
C     3.2190391   -0.1703617    0.4831977 
C     3.7520125    0.8974532   -0.4595998 
S     5.5185201    0.6142937   -0.7687641 
C     1.7747084    0.2065894    0.8374248 
O     1.5159450    1.2765067    1.3596234 
N     0.8346779   -0.7103758    0.5400742 
C    -0.5600904   -0.4878870    0.8167152 
C    -1.2134554    0.3423264   -0.3005675 
C    -2.6976882    0.6745260   -0.1236127 
C    -2.9934679    2.0653473   -0.6684174 
C    -3.5958070   -0.3535716   -0.8001441 
C    -1.1980995   -1.8439164    0.9872387 
O    -0.8246651   -2.8411405    0.4272963 
O    -2.2348093   -1.8229383    1.8293884 
H     3.0694083   -1.6286221   -0.9760009 
H     3.2362607   -2.2401997    0.5578004 
H     3.7725247   -0.0855295    1.4234797 
H     3.1993271    0.8665513   -1.4029763 
H     3.6029399    1.8726150   -0.0035644 
H     5.8086709    1.8917961   -1.0575773 
H     1.0907597   -1.5854979    0.1141761 
H    -0.6432461    0.0689457    1.7520414 
H    -0.6269332    1.2628948   -0.3323928 
H    -1.0520829   -0.1735590   -1.2524665 
H    -2.9234565    0.6780670    0.9484587 
H    -2.7469189    2.1233273   -1.7325086 
H    -4.0511023    2.3145781   -0.5599202 
H    -2.4097620    2.8270792   -0.1481096 
H    -3.4479618   -0.3277615   -1.8834035 
H    -4.6489097   -0.1429685   -0.6035967 
H    -3.3950973   -1.3719304   -0.4660188 
H    -2.6021280   -2.7160361    1.8517302 
