27
Energy = -1157.236615620
N    -1.5821087   -1.7614412   -1.0481921 
C    -2.0603605   -0.4580139   -0.6148786 
C    -2.7396191   -0.6105074    0.7478714 
S    -3.7160221    0.8138325    1.2790742 
C    -0.8996742    0.5201064   -0.4725055 
O    -1.0859723    1.7284352   -0.4311586 
N     0.3075433   -0.0472942   -0.3536563 
C     1.4998775    0.7324198   -0.1785320 
C     1.7577291    1.0874167    1.2856473 
C     2.6600891   -0.0457743   -0.7491076 
O     2.6132744   -1.1943764   -1.0981608 
O     3.7746664    0.6912215   -0.7979728 
H    -1.3341334   -1.7515344   -2.0288421 
H    -2.2957220   -2.4661234   -0.9243497 
H    -2.7733420    0.0131470   -1.3005321 
H    -3.4572512   -1.4322257    0.6883381 
H    -1.9992160   -0.8802285    1.5031619 
H    -2.7961571    1.7445653    0.9709126 
H     0.3708118   -1.0526062   -0.4420641 
H     1.3928819    1.6616325   -0.7449165 
H     1.9205354    0.1848355    1.8770320 
H     0.8860154    1.6071638    1.6814071 
H     2.6277575    1.7359084    1.3787068 
H     4.4746247    0.1227390   -1.1422527 
C    -0.2868883    4.2095801    0.5271883 
O    -1.2229586    4.2280387    1.2054762 
O     0.6670311    4.2307503   -0.1282831 
