24
Energy = -716.9893031501
N     3.1592306    0.7411276    0.4538924 
C     2.9622971   -0.6927302    0.5749750 
C     1.6290228   -1.1714517    0.0219748 
O     1.3920074   -2.3536026   -0.1266923 
N     0.7614476   -0.1756676   -0.2575453 
C    -0.5850838   -0.4432993   -0.6964181 
C    -1.6230249   -0.1085015    0.3218813 
C    -2.3473313   -0.8851896    1.1845277 
N    -3.1414000   -0.1076312    1.9793152 
C    -2.9073666    1.1249780    1.6065485 
N    -1.9932175    1.1815730    0.6100307 
C    -0.8585228    0.3647240   -1.9514470 
O    -0.6825238    1.5551730   -2.0216240 
O    -1.3406328   -0.3669136   -2.9523165 
H     3.6041471    0.9813031   -0.4205710 
H     3.7377034    1.1002573    1.1980113 
H     3.7336540   -1.3064120    0.0993888 
H     2.9565959   -0.9693203    1.6318690 
H     1.0727219    0.7638257   -0.0539157 
H    -0.6356392   -1.5094865   -0.9140413 
H    -2.3254963   -1.9598690    1.2737378 
H    -3.3716916    2.0081104    2.0172387 
H    -1.6763524    1.9956911    0.1098099 
H    -1.5203450    0.2329119   -3.6884298 
