38
Energy = -1065.475037207
N    -1.5606803   -2.0506619   -0.1272040 
C    -1.7952869   -0.7584426   -0.7491209 
C    -2.5192565    0.1882582    0.2021915 
C    -3.9835082   -0.1879371    0.4170077 
C    -4.6600890    0.7515865    1.3723162 
O    -5.5138658    1.5452084    1.0895922 
O    -4.1823679    0.6168958    2.6243274 
C    -0.4876234   -0.0828788   -1.1638673 
O    -0.5022955    0.8921326   -1.8964970 
N     0.6149222   -0.6303527   -0.6328845 
C     1.9421120   -0.1432355   -0.8899794 
C     2.5713644    0.5103969    0.3573156 
C     1.7157660    1.6755643    0.8285098 
C     3.9986617    0.9648649    0.0909850 
C     2.7851287   -1.3156030   -1.3434495 
O     2.7357129   -2.4104215   -0.8497754 
O     3.6125638   -1.0040338   -2.3474112 
H    -1.5019609   -2.7924716   -0.8102630 
H    -2.2909317   -2.2930917    0.5258615 
H    -2.3819310   -0.8244519   -1.6742377 
H    -2.4634636    1.1919902   -0.2218499 
H    -1.9916900    0.2001944    1.1600350 
H    -4.5293727   -0.1482339   -0.5247603 
H    -4.0720289   -1.1983133    0.8263271 
H    -4.6474827    1.2636074    3.1689757 
H     0.4773230   -1.4561203   -0.0651279 
H     1.8753007    0.5952391   -1.6893540 
H     2.5857831   -0.2578478    1.1394100 
H     0.6901323    1.3687430    1.0345746 
H     1.6889395    2.4628137    0.0726898 
H     2.1309231    2.0988939    1.7448723 
H     4.0289330    1.6771125   -0.7371214 
H     4.6616380    0.1346876   -0.1564125 
H     4.4038844    1.4598855    0.9748690 
H     4.1284640   -1.7970150   -2.5430108 
C     0.5775539    3.2379765   -2.9781641 
O    -0.4732764    3.5546348   -3.3367299 
O     1.6515144    2.9661003   -2.6374343 
