30
Energy = -1196.509116624
N     1.1042230   -0.0556692    1.9358998 
C     0.4312580   -0.2865616    0.6770438 
C     0.9187613   -1.5872315    0.0417085 
C     2.3922203   -1.5568760   -0.3278857 
S     2.8037622   -0.3096485   -1.5764493 
C     3.5938815    0.9469628   -0.5570845 
C    -1.0845428   -0.3503239    0.8199884 
O    -1.6179009   -0.7094792    1.8528570 
N    -1.7848950   -0.0244532   -0.2921110 
C    -3.2153769   -0.0107437   -0.3073927 
C    -3.8668647    1.3530532   -0.2901731 
O    -5.0486686    1.5158498   -0.4026378 
O    -2.9941996    2.3601716   -0.1408474 
H     0.9021888    0.8772196    2.2719469 
H     0.7160429   -0.6852817    2.6307444 
H     0.6845579    0.5283247   -0.0104522 
H     0.3236875   -1.8005906   -0.8499651 
H     0.7406232   -2.4079050    0.7457222 
H     2.6915879   -2.5246702   -0.7322805 
H     3.0011300   -1.3595288    0.5541624 
H     3.7968224    1.7990339   -1.2053696 
H     2.9476698    1.2597961    0.2617026 
H     4.5371192    0.5799243   -0.1526584 
H    -1.2817830    0.3554088   -1.0748822 
H    -3.6159746   -0.5429661   -1.1725128 
H    -3.5602844   -0.5364875    0.5859133 
H    -3.5160355    3.1724254   -0.1289996 
C    -2.8404696   -1.5287547    4.2227964 
O    -1.8117755   -1.6439215    4.7395541 
O    -3.8877800   -1.4263658    3.7426475 
