27
Energy = -685.1528131513
N     2.8828088    1.1483292    0.4316481 
C     2.5976703    0.1899414   -0.6234208 
C     3.1015137   -1.1878643   -0.2235151 
C     1.1009529    0.0884237   -0.8985971 
O     0.6772326   -0.4393923   -1.9141083 
N     0.3122821    0.5873730    0.0662840 
C    -1.1144323    0.5282574   -0.0323831 
C    -1.6572616   -0.8462024    0.3928015 
O    -1.5641889   -0.8859188    1.8055144 
C    -3.0561918   -1.1481561   -0.1009318 
C    -1.6846336    1.6557761    0.8000948 
O    -1.0459198    2.3448740    1.5451401 
O    -2.9990325    1.8203998    0.6028198 
H     2.8559160    2.0991619    0.0895673 
H     3.7992074    0.9900374    0.8258524 
H     3.0451203    0.4553076   -1.5894110 
H     2.8250538   -1.9214961   -0.9793761 
H     2.6685270   -1.4844655    0.7342662 
H     4.1894970   -1.1846966   -0.1253901 
H     0.7461039    1.0104649    0.8744646 
H    -1.3977351    0.6807573   -1.0774614 
H    -0.9631171   -1.5663162   -0.0558497 
H    -1.8238328   -1.7573729    2.1060220 
H    -3.3371456   -2.1636572    0.1888195 
H    -3.0967802   -1.0943312   -1.1905410 
H    -3.7846351   -0.4541654    0.3145965 
H    -3.2769796    2.5350312    1.1891941 
