45
Energy = -1107.880891904
N     2.4475383   -1.0897996    2.1830042 
C     2.1983965    0.1361633    1.4602457 
C     2.9322920    0.1208010    0.1207357 
C     4.4430023   -0.0703956    0.2119784 
C     5.1075758    1.0260102    1.0299916 
C     5.0338279   -0.1344437   -1.1890151 
C     0.7433005    0.5134897    1.1826456 
O     0.4328377    1.6380463    0.8306117 
N    -0.1650231   -0.4753914    1.3301035 
C    -1.5518176   -0.2716581    1.0183032 
C    -1.7963542   -0.3214136   -0.5068888 
C    -3.2169992   -0.0634646   -0.9029989 
C    -3.7333242    1.2289123   -0.8707211 
C    -5.0571437    1.4686749   -1.2009981 
C    -5.8842901    0.4176553   -1.5720988 
C    -5.3781085   -0.8723687   -1.6129209 
C    -4.0528052   -1.1094426   -1.2791381 
C    -2.3458466   -1.3548990    1.7029368 
O    -1.9455013   -2.4815224    1.8588117 
O    -3.5494394   -0.9464558    2.0911791 
H     2.2628984   -1.9188446    1.6353421 
H     1.9495740   -1.1458990    3.0588453 
H     2.5819508    0.9705648    2.0544968 
H     2.7091836    1.0595722   -0.3934361 
H     2.5069719   -0.6826928   -0.4948956 
H     4.6328949   -1.0248274    0.7125196 
H     4.8789202    2.0130687    0.6171117 
H     4.7806704    1.0093512    2.0707609 
H     6.1930422    0.9067830    1.0261524 
H     6.1092171   -0.3211515   -1.1553117 
H     4.8767817    0.8088168   -1.7203483 
H     4.5735204   -0.9291968   -1.7810069 
H     0.1321939   -1.4015948    1.5887491 
H    -1.8628088    0.7058568    1.3882918 
H    -1.4727500   -1.2982983   -0.8730262 
H    -1.1333756    0.4339837   -0.9321799 
H    -3.0872536    2.0529659   -0.5872792 
H    -5.4442832    2.4800672   -1.1735235 
H    -6.9183306    0.6054195   -1.8341105 
H    -6.0150642   -1.6971242   -1.9091941 
H    -3.6585418   -2.1198141   -1.3135738 
H    -4.0167018   -1.7142718    2.4452624 
C    -0.2656452   -3.9575272    0.0268813 
O     0.6898017   -3.6602994    0.6110338 
O    -1.1991078   -4.2621966   -0.5806529 
