37
Energy = -1152.637197225
N     2.0731208   -1.2814851   -0.1279813 
C     1.5092308   -0.3797660    0.8454246 
C     1.9051283    1.0724344    0.5547355 
C     3.3694705    1.2393171    0.2047342 
C     3.6690452    0.8708160   -1.2348248 
O     2.8191626    0.8719100   -2.1069878 
N     4.9661594    0.6054174   -1.5034311 
C    -0.0070742   -0.3875030    1.0236790 
O    -0.5431613    0.2632262    1.9146402 
N    -0.7040810   -1.1069527    0.1331882 
C    -2.1468911   -1.1427976    0.1422567 
C    -2.7598890    0.0978758   -0.4216816 
C    -3.4823833    0.3852766   -1.5485369 
N    -3.7558013    1.7228068   -1.6091495 
C    -3.2033448    2.2401965   -0.5400607 
N    -2.5960335    1.2989466    0.2160595 
C    -2.5824200   -2.3790239   -0.6160001 
O    -1.8387671   -3.0776298   -1.2476833 
O    -3.8880995   -2.6086393   -0.4864759 
H     1.8446481   -2.2496100    0.0379998 
H     1.8725833   -1.0217247   -1.0846419 
H     1.9125776   -0.6483775    1.8282516 
H     1.6466998    1.6675309    1.4294003 
H     1.3122250    1.4577093   -0.2780820 
H     4.0091377    0.6635197    0.8786529 
H     3.6527318    2.2909552    0.3172040 
H     5.2114407    0.3298067   -2.4376175 
H     5.6383925    0.4839676   -0.7703497 
H    -0.2362057   -1.6042521   -0.6082524 
H    -2.4750019   -1.2584582    1.1815777 
H    -3.8303751   -0.2982016   -2.3069359 
H    -3.2112807    3.2843769   -0.2696914 
H    -2.0391926    1.4048872    1.0543547 
H    -4.0918835   -3.4015625   -0.9982559 
C    -0.0872452    0.8794079   -2.6907152 
O     0.0108175   -0.2454307   -2.9500458 
O    -0.2033668    1.9984164   -2.4291632 
