30
Energy = -1047.321770922
N    -3.1998637    1.8422021   -0.9783545 
C    -2.8658152    0.8349773    0.0060303 
C    -3.9015184   -0.2819090   -0.0266077 
C    -1.4872579    0.2195973   -0.2283221 
O    -1.0432843    0.0455302   -1.3505904 
N    -0.8109216   -0.1471729    0.8804515 
C     0.4419157   -0.8478583    0.7999206 
C     1.6041562    0.1032096    0.4572998 
C     2.8468320   -0.5894880   -0.0689994 
S     4.1264634    0.5538947   -0.6181681 
C     3.3674312    1.2023785   -2.1126832 
C     0.6521655   -1.5413726    2.1224731 
O     0.0158067   -1.3157114    3.1176840 
O     1.6477598   -2.4316841    2.0812762 
H    -3.0199115    1.4560964   -1.8991877 
H    -2.5790045    2.6367448   -0.8879509 
H    -2.8822926    1.3054374    0.9946230 
H    -3.6970526   -1.0422184    0.7291869 
H    -3.8947728   -0.7646857   -1.0061183 
H    -4.8930442    0.1352862    0.1462117 
H    -1.2098378   -0.0363144    1.7988750 
H     0.3778369   -1.6037319    0.0107299 
H     1.2092078    0.7664215   -0.3122626 
H     1.8496388    0.7202630    1.3250805 
H     2.5915853   -1.2556251   -0.8982001 
H     3.3202779   -1.2011393    0.6988926 
H     2.4637044    1.7733561   -1.9020722 
H     4.0984911    1.8677488   -2.5708849 
H     3.1378328    0.3976136   -2.8119757 
H     1.7335714   -2.8018464    2.9691428 
