33
Energy = -814.0173710992
N     0.6161444   -0.4779898    3.5470896 
C     0.2829326   -0.1320140    2.1778557 
C    -0.6743627    1.0652004    2.1794166 
C    -1.3460350    1.3380835    0.8407249 
C    -2.4111907    0.2953759    0.5089552 
N    -2.7460917    0.1951706   -0.8929371 
C    -1.9148564   -0.4780203   -1.7434469 
N    -0.8736880   -1.0850948   -1.3081862 
N    -2.3149629   -0.4034378   -3.0672234 
C     1.5297288    0.2147200    1.3630247 
O     2.4707757    0.8020340    1.8757404 
N     1.5072607   -0.1555492    0.0680441 
C     2.5882410    0.2020312   -0.7932235 
C     2.7717018   -0.7684190   -1.9236178 
O     2.0573966   -1.6947573   -2.1964263 
O     3.8582580   -0.4533052   -2.6453958 
H     1.1181738   -1.3572310    3.5618075 
H     1.2773531    0.2137745    3.8864099 
H    -0.2118537   -0.9903735    1.7163267 
H    -1.4268356    0.8661209    2.9479762 
H    -0.1153456    1.9454805    2.5097291 
H    -1.8009961    2.3328118    0.8528128 
H    -0.6020885    1.3476806    0.0415842 
H    -2.0733046   -0.6942271    0.8145530 
H    -3.3293993    0.5054330    1.0624294 
H    -3.2491397    0.9657028   -1.2985909 
H    -0.4098641   -1.6311778   -2.0244027 
H    -3.3103967   -0.4282762   -3.2197122 
H    -1.8104597   -1.0116928   -3.6888924 
H     0.6550889   -0.5603933   -0.3377415 
H     2.4653306    1.1967872   -1.2431909 
H     3.5092742    0.2591838   -0.2091914 
H     3.9131107   -1.0963317   -3.3625010 
