27
Energy = -1008.036383588
N     1.1070360   -0.0554058    1.9349279 
C     0.4305722   -0.2868454    0.6772559 
C     0.9187564   -1.5867591    0.0415998 
C     2.3922058   -1.5569327   -0.3280825 
S     2.8046899   -0.3099898   -1.5767979 
C     3.5939776    0.9469081   -0.5571921 
C    -1.0859766   -0.3520853    0.8251553 
O    -1.6189912   -0.7095547    1.8572094 
N    -1.7844995   -0.0271639   -0.2924371 
C    -3.2137270   -0.0103985   -0.3094483 
C    -3.8658699    1.3531701   -0.2907223 
O    -5.0484692    1.5155571   -0.4009014 
O    -2.9944007    2.3610491   -0.1423702 
H     0.9015147    0.8769718    2.2707587 
H     0.7136367   -0.6841264    2.6274169 
H     0.6822779    0.5286357   -0.0099988 
H     0.3233496   -1.8001243   -0.8497701 
H     0.7404444   -2.4077347    0.7452930 
H     2.6918354   -2.5246798   -0.7324804 
H     3.0013358   -1.3593658    0.5538151 
H     3.7968559    1.7991082   -1.2053444 
H     2.9473863    1.2594280    0.2614294 
H     4.5372355    0.5801435   -0.1524957 
H    -1.2805087    0.3559419   -1.0728825 
H    -3.6172440   -0.5425452   -1.1735813 
H    -3.5563371   -0.5357941    0.5846701 
H    -3.5170861    3.1726919   -0.1289266 
