40
Energy = -1158.634085363
N     1.7717476   -0.0119732   -2.4484121 
C     0.8482872   -0.1381730   -1.3457128 
C     1.2699516    0.7717027   -0.1747827 
C     2.4482370    0.2476965    0.5883960 
C     2.2595641   -0.3547439    1.8291050 
C     3.3306918   -0.8747480    2.5407568 
C     4.6115656   -0.7981667    2.0164382 
C     4.8118589   -0.1959217    0.7822011 
C     3.7401384    0.3234942    0.0734768 
C    -0.5744927    0.2527520   -1.7257550 
O    -0.8147282    1.0801895   -2.5835882 
N    -1.5635433   -0.3425480   -1.0110777 
C    -2.9067782    0.1526394   -1.1147743 
C    -3.8977364   -0.7453653   -0.3736467 
C    -3.6285470   -1.1353804    1.0755383 
O    -4.2089291   -2.0876765    1.5499629 
N    -2.7188633   -0.4090818    1.7686015 
C    -3.0011848    1.5956075   -0.6415642 
O    -2.3222710    2.0851933    0.2261292 
O    -3.9718197    2.2544318   -1.2658184 
H     1.5265548    0.8232991   -2.9703442 
H     1.6670571   -0.7881003   -3.0882166 
H     0.8554716   -1.1737035   -0.9931549 
H     1.4747322    1.7626123   -0.5884435 
H     0.4225459    0.8800729    0.5060809 
H     1.2596184   -0.4097790    2.2471723 
H     3.1646217   -1.3360866    3.5069474 
H     5.4517083   -1.2014733    2.5683345 
H     5.8108483   -0.1290378    0.3681321 
H     3.8952964    0.7777413   -0.8963737 
H    -1.3182957   -0.8845824   -0.1991878 
H    -3.1904866    0.1674726   -2.1682083 
H    -3.9868752   -1.6885715   -0.9131312 
H    -4.8889144   -0.2868322   -0.4002104 
H    -2.6244719   -0.6262825    2.7462588 
H    -2.3908754    0.4933956    1.4545774 
H    -3.9981461    3.1495957   -0.9042401 
C    -0.3602232    2.8098425    2.3116808 
O    -0.7110926    1.8499479    2.8586198 
O     0.0008375    3.7684065    1.7804023 
