27
Energy = -739.2971620543
N     2.2115977   -0.4131338   -1.5609045 
C     1.3977884   -0.2302972   -0.3703940 
C     1.9234399    0.9284313    0.4840981 
C     3.2684237    0.7056956    1.1593354 
O     3.4692757    1.0884812    2.2949034 
N     4.1947817    0.0868248    0.4011790 
C    -0.0544222    0.0784083   -0.7329778 
O    -0.3355519    0.6575768   -1.7677383 
N    -0.9784016   -0.2973720    0.1712375 
C    -2.3648672    0.0645184    0.0328150 
C    -3.1100628   -0.8251600   -0.9599256 
C    -2.9916987   -0.0148333    1.4033012 
O    -2.4535806   -0.4783425    2.3733340 
O    -4.2339849    0.4733655    1.4142946 
H     1.9846281   -1.2962214   -2.0005162 
H     1.9421291    0.3038611   -2.2283902 
H     1.4377777   -1.1499596    0.2213660 
H     1.2221763    1.1619891    1.2845806 
H     1.9973507    1.8191103   -0.1485776 
H     3.9412901   -0.2254371   -0.5286201 
H     5.1012383   -0.0834804    0.7976820 
H    -0.7093723   -0.7045260    1.0538861 
H    -2.4294935    1.1000310   -0.3147854 
H    -2.6238040   -0.7456550   -1.9306919 
H    -4.1475427   -0.5073915   -1.0561171 
H    -3.0853775   -1.8660756   -0.6334551 
H    -4.5737378    0.3695920    2.3119807 
