34
Energy = -893.7603546402
N    -2.8906859    0.4775533    2.3507655 
C    -2.1355845   -0.4266865    1.5146967 
C    -1.8046168    0.2328643    0.1922381 
O    -1.8019146    1.4418347    0.0567892 
N    -1.4734560   -0.6246452   -0.8006180 
C    -0.9991080   -0.1761256   -2.0743044 
C     0.5482952   -0.1779329   -2.1797863 
C     1.1808790    0.5546721   -1.0518447 
C     1.5143443    0.0171977    0.2343875 
C     1.4694592   -1.2629782    0.7935096 
C     1.8598525   -1.4364105    2.1057629 
C     2.2989574   -0.3524641    2.8797417 
C     2.3623910    0.9228517    2.3539984 
C     1.9685437    1.0931687    1.0311834 
N     1.9208749    2.2177641    0.2533175 
C     1.4456713    1.8927864   -0.9888051 
C    -1.5601894   -1.0709933   -3.1495627 
O    -2.0108458   -2.1688490   -2.9604043 
O    -1.4441489   -0.5256302   -4.3662512 
H    -2.5897881    0.4192183    3.3118100 
H    -2.7087451    1.4208097    2.0242566 
H    -1.1654483   -0.7222361    1.9394906 
H    -2.6925838   -1.3523028    1.3262902 
H    -1.6088129   -1.6137354   -0.6765868 
H    -1.3540670    0.8454054   -2.2194982 
H     0.8231154    0.2628194   -3.1397014 
H     0.8953298   -1.2156118   -2.1925380 
H     1.1298457   -2.1088889    0.2072964 
H     1.8289768   -2.4242224    2.5488406 
H     2.5961284   -0.5193305    3.9076512 
H     2.7041572    1.7581453    2.9535729 
H     2.1594754    3.1431031    0.5545012 
H     1.3071013    2.6541636   -1.7400657 
H    -1.7731032   -1.1754144   -5.0000335 
