42
Energy = -1068.604158675
N    -1.7593979   -1.5154655    2.5596620 
C    -0.9496065   -1.6668642    1.3755783 
C    -1.8444222   -1.7883268    0.1282371 
C    -2.6312318   -0.5447369   -0.1684827 
C    -3.8568533   -0.3128779    0.4522452 
C    -4.5700821    0.8491703    0.2037415 
C    -4.0714821    1.7991414   -0.6754088 
C    -2.8570857    1.5762138   -1.3070260 
C    -2.1445740    0.4133858   -1.0542475 
C     0.0798443   -0.5410617    1.2174700 
O     0.1197269    0.4068556    1.9821570 
N     0.9419346   -0.6678845    0.1875412 
C     1.8445425    0.3968737   -0.1665896 
C     3.1340841    0.3657585    0.6856284 
C     4.0271408   -0.8078890    0.3191528 
C     3.8847568    1.6866372    0.6678542 
C     2.0984112    0.2758314   -1.6491409 
O     1.7425363   -0.6550358   -2.3257309 
O     2.7682535    1.3159972   -2.1498832 
H    -2.1811505   -0.5928394    2.5508415 
H    -1.1628042   -1.5193229    3.3770629 
H    -0.3920934   -2.6061578    1.4614044 
H    -2.5218694   -2.6237970    0.3116502 
H    -1.2364197   -2.0501885   -0.7406623 
H    -4.2497370   -1.0549057    1.1376423 
H    -5.5195709    1.0132951    0.6985491 
H    -4.6294317    2.7065325   -0.8714234 
H    -2.4616496    2.3087821   -2.0001904 
H    -1.2017693    0.2403267   -1.5610994 
H     0.8217607   -1.3948261   -0.4991213 
H     1.3472029    1.3540240    0.0176262 
H     2.7552126    0.2148463    1.7000701 
H     4.4627637   -0.6810184   -0.6761189 
H     4.8525175   -0.8954957    1.0273975 
H     3.4761081   -1.7501311    0.3304524 
H     4.3209736    1.8940223   -0.3095605 
H     3.2251801    2.5170398    0.9275320 
H     4.6952939    1.6612143    1.3985171 
H     2.8911575    1.1427998   -3.0919505 
C    -1.2782755    2.7905308    1.4333008 
O    -2.0966314    2.4993370    2.1946734 
O    -0.4740828    3.1245603    0.6690744 
