39
Energy = -1029.307463905
N    -2.9856637    2.3825052    0.3277051 
C    -2.5499409    1.0027802    0.3691320 
C    -3.3837707    0.1578525   -0.5956304 
C    -4.8495888    0.1635573   -0.2198135 
C    -5.7159068   -0.5231518   -1.2300579 
O    -5.3586517   -0.9507195   -2.2943878 
O    -6.9922912   -0.6106371   -0.8116374 
C    -1.0779811    0.8495601   -0.0100491 
O    -0.5294513    1.6290055   -0.7694886 
N    -0.4444792   -0.2191371    0.5146828 
C     0.9091528   -0.5443418    0.1577350 
C     1.9190420    0.3210138    0.9450268 
C     3.3330239    0.2093608    0.4639362 
C     3.7003969    0.7724315   -0.7554391 
C     4.9996543    0.6607851   -1.2222809 
C     5.9541937   -0.0127510   -0.4726923 
C     5.6003938   -0.5703882    0.7460696 
C     4.2973110   -0.4595669    1.2083045 
C     1.1143594   -2.0101368    0.4495296 
O     0.4597034   -2.6334373    1.2450355 
O     2.1182036   -2.5341386   -0.2494394 
H    -2.6068768    2.8933178    1.1143917 
H    -2.5827449    2.8103664   -0.5000502 
H    -2.6971409    0.6234705    1.3866991 
H    -3.2609002    0.5558410   -1.6058958 
H    -3.0039292   -0.8661472   -0.6218596 
H    -5.0213010   -0.3100056    0.7514073 
H    -5.2023244    1.1930915   -0.1122315 
H    -7.4826282   -1.0481406   -1.5182223 
H    -0.9145437   -0.8573606    1.1364025 
H     1.0549731   -0.3598804   -0.9080789 
H     1.8470520    0.0623277    2.0040377 
H     1.5663794    1.3474306    0.8288183 
H     2.9586293    1.3076946   -1.3389554 
H     5.2704037    1.1055203   -2.1722465 
H     6.9711010   -0.0973551   -0.8357892 
H     6.3408685   -1.0918693    1.3405982 
H     4.0244057   -0.8969957    2.1627848 
H     2.2205671   -3.4514518    0.0347489 
