43
Energy = -1329.920177551
N    -0.5666064    1.4266536   -1.4517894 
C    -0.2907914    0.4812723   -0.3900156 
C    -1.4671740   -0.4719521   -0.1652650 
C    -2.7641836    0.2024751    0.2686303 
C    -3.6142335    0.7103975   -0.8897048 
N    -4.8823016    1.2674643   -0.4757298 
C    -5.9008747    0.4460437   -0.0676382 
N    -5.8019601   -0.8245318   -0.1563880 
N    -6.9818219    1.1598061    0.4463219 
C     0.9528292   -0.3588605   -0.6771154 
O     1.2843896   -0.6481828   -1.8134552 
N     1.6390780   -0.7785388    0.4083454 
C     2.7326519   -1.7066589    0.3029452 
C     4.0190960   -1.0582752   -0.2282272 
C     4.5592295    0.0298252    0.6803452 
S     5.9223139    0.9633816   -0.0388122 
C     5.0253286    1.9415284   -1.2503823 
C     2.9398644   -2.3235868    1.6637923 
O     2.3503376   -1.9989746    2.6606177 
O     3.8763467   -3.2752892    1.6436489 
H     0.1652996    2.1250436   -1.4894805 
H    -0.5122952    0.9289123   -2.3347727 
H    -0.1311830    1.0463501    0.5352774 
H    -1.1687768   -1.2024750    0.5918421 
H    -1.6309181   -1.0434630   -1.0857660 
H    -2.5373450    1.0333087    0.9467059 
H    -3.3712442   -0.5139305    0.8251665 
H    -3.8330019   -0.1210135   -1.5618060 
H    -3.0708580    1.4698199   -1.4506812 
H    -4.8391975    2.1542063   -0.0027142 
H    -6.6763832   -1.2776608    0.0824330 
H    -7.8074181    0.6015234    0.5825174 
H    -7.1852380    2.0180690   -0.0421150 
H     1.2894355   -0.6037031    1.3373433 
H     2.4617751   -2.5089840   -0.3915889 
H     4.7741639   -1.8311233   -0.3754354 
H     3.7697664   -0.6541956   -1.2091329 
H     4.9594044   -0.3937333    1.6050867 
H     3.7698429    0.7302970    0.9638149 
H     5.7587224    2.5735249   -1.7500649 
H     4.5378169    1.3180538   -1.9996125 
H     4.2863255    2.5799684   -0.7639157 
H     3.9595880   -3.6125925    2.5442748 
