38
Energy = -1008.220188308
N     3.8050991    0.5058625   -0.6919523 
C     2.7943150    1.1765875    0.1024525 
C     2.2132623    2.3115192   -0.7389876 
O     3.2274691    3.1597930   -1.2008832 
C     1.6401820    0.3568439    0.6702201 
O     0.8103626    0.8761146    1.3891369 
N     1.5922343   -0.9431878    0.2954372 
C     0.5588432   -1.8243968    0.7480780 
C    -0.5146959   -2.0736378   -0.3402917 
C    -1.1841571   -0.8159112   -0.7541232 
C    -2.2057968   -0.1169271   -0.0318678 
C    -2.9041792   -0.3764118    1.1490735 
C    -3.8506600    0.5312098    1.5776737 
C    -4.1148162    1.6993736    0.8496859 
C    -3.4389519    1.9842322   -0.3203244 
C    -2.4857090    1.0674088   -0.7480464 
N    -1.6684662    1.0787445   -1.8480479 
C    -0.8911392   -0.0505344   -1.8466684 
C     1.1810790   -3.1388469    1.1420802 
O     2.2869677   -3.4930537    0.8274778 
O     0.3399747   -3.9026105    1.8461946 
H     4.4071877   -0.1003904   -0.1556025 
H     3.4148296   -0.0058647   -1.4717961 
H     3.2931797    1.6325312    0.9618614 
H     1.6467365    1.8719009   -1.5767184 
H     1.5160917    2.8906132   -0.1359275 
H     3.9680713    2.5823488   -1.4204108 
H     2.3961906   -1.3664162   -0.1362250 
H     0.0798242   -1.3640722    1.6149959 
H    -0.0285538   -2.5463757   -1.1981178 
H    -1.2413465   -2.7874974    0.0546408 
H    -2.7062796   -1.2740850    1.7234267 
H    -4.3980349    0.3442029    2.4931427 
H    -4.8617708    2.3938873    1.2137273 
H    -3.6432806    2.8902706   -0.8782120 
H    -1.6468213    1.7949597   -2.5482955 
H    -0.1776515   -0.2292006   -2.6358835 
H     0.7903102   -4.7388839    2.0190768 
