30
Energy = -944.7516629182
N    -2.1810172   -1.8691128    1.4589762 
C    -1.3358877   -1.1761685    0.5176655 
C    -1.9428683    0.0592409   -0.0938319 
C    -3.2314944    0.5237793   -0.0958875 
N    -3.3220481    1.6963719   -0.7967233 
C    -2.1061910    1.9445568   -1.2082727 
N    -1.2342618    0.9818913   -0.8231957 
C    -0.0609466   -0.7517152    1.2368180 
O    -0.0733382   -0.2949132    2.3600692 
N     1.0704250   -0.8640877    0.4948124 
C     2.2906098   -0.2140285    0.8727732 
C     3.5070308   -1.1099138    0.6784810 
C     2.4370258    1.0879260    0.1056851 
O     1.7090592    1.4539955   -0.7824214 
O     3.4865650    1.7950363    0.5177583 
H    -2.2767585   -1.3045289    2.2950738 
H    -3.1026953   -2.0104744    1.0697229 
H    -1.0654745   -1.8775592   -0.2826809 
H    -4.0957178    0.0815989    0.3734560 
H    -1.7954838    2.8057580   -1.7791450 
H    -0.2271041    1.0276323   -0.9269396 
H     0.9919870   -1.2188895   -0.4427775 
H     2.1865387    0.0482500    1.9286224 
H     3.3886550   -2.0123652    1.2765381 
H     4.4165955   -0.5974474    0.9870060 
H     3.6155514   -1.4009575   -0.3688429 
H     3.5135080    2.6085270   -0.0020787 
C    -2.0248143    1.8599736    2.6957442 
O    -2.7701029    1.1781496    3.2606546 
O    -1.2920097    2.5696954    2.1510445 
