37
Energy = -1044.397766937
N    -3.4547075   -0.9127329    0.2985897 
C    -2.2208075   -0.5325194   -0.3682103 
C    -2.5252238    0.7456741   -1.2005271 
C    -3.8298768    1.2543255   -0.6001387 
C    -4.5166853   -0.0475972   -0.2064079 
C    -1.1348060   -0.2478312    0.6530131 
O    -1.3807891    0.0583251    1.8035897 
N     0.1307774   -0.3305687    0.1720873 
C     1.2713459    0.0377872    0.9619231 
C     2.3032003   -1.0703703    1.0974200 
C     2.9251937   -1.4959668   -0.2399882 
C     4.4070061   -1.8084509   -0.1313384 
O     4.8602139   -2.9157187   -0.3300746 
N     5.1709166   -0.7397812    0.1968815 
C     1.9266925    1.3210364    0.4783398 
O     3.1070371    1.5571050    0.5988014 
O     1.0731705    2.1782558   -0.0672532 
H    -3.3190835   -0.7362807    1.2879935 
H    -1.8686853   -1.3319493   -1.0310592 
H    -1.7130146    1.4727574   -1.1590324 
H    -2.6710959    0.4699735   -2.2471211 
H    -3.6288490    1.8510681    0.2928095 
H    -4.4063136    1.8636626   -1.2979439 
H    -4.9828301   -0.5085275   -1.0845556 
H    -5.2937085    0.0742616    0.5488005 
H     0.2609971   -0.5799078   -0.7927531 
H     0.8611023    0.2777202    1.9504787 
H     3.0793304   -0.7175687    1.7764430 
H     1.8254409   -1.9239767    1.5782371 
H     2.8213382   -0.6944643   -0.9797855 
H     2.4416974   -2.3839576   -0.6421077 
H     6.1558753   -0.8795645    0.3307367 
H     4.7586876    0.1562326    0.4008596 
H     1.5710826    2.9749277   -0.3103390 
C     4.1485861    3.9607063   -0.4814394 
O     5.2422788    3.6861898   -0.2481471 
O     3.0572100    4.2697289   -0.7346809 
