40
Energy = -967.7495286568
N     0.0333502   -0.8056836   -2.7324892 
C     0.1391647   -1.6324221   -1.5509065 
C     1.5555281   -1.5963356   -0.9795931 
C     1.9809102   -0.2272949   -0.4761257 
C     3.3717653   -0.2583247    0.1257527 
N     3.7572593    1.0506933    0.5902852 
C     5.0195509    1.2656775    1.1067769 
N     6.0012065    0.4531582    1.1327487 
N     5.1562761    2.5366608    1.6465986 
C    -0.8540015   -1.3813699   -0.4141095 
O    -0.9069762   -2.1132873    0.5569391 
N    -1.6539189   -0.2966454   -0.5346874 
C    -2.7129377   -0.0680414    0.4057238 
C    -3.4365110    1.2280894   -0.0003530 
O    -3.7770723    1.1843983   -1.3698497 
C    -4.6301218    1.5405705    0.8775947 
C    -3.7133110   -1.2100501    0.3831463 
O    -4.2003893   -1.6420033   -0.6319494 
O    -4.0620959   -1.6229236    1.5982463 
H    -0.8435167   -0.9183583   -3.2190301 
H     0.1964952    0.1740257   -2.5531061 
H    -0.0583179   -2.6644087   -1.8551807 
H     1.6016370   -2.3164274   -0.1603546 
H     2.2397638   -1.9324177   -1.7623459 
H     1.9751767    0.5068203   -1.2875274 
H     1.2691280    0.1230289    0.2809844 
H     4.0890689   -0.5780109   -0.6360043 
H     3.4059310   -1.0055569    0.9318842 
H     3.0311332    1.5584734    1.0704742 
H     5.7291500   -0.4731698    0.8263391 
H     6.1148296    2.7221383    1.8948164 
H     4.7524452    3.2724116    1.0887685 
H    -1.7523234    0.1472185   -1.4332370 
H    -2.3100410    0.0230038    1.4147848 
H    -2.7007334    2.0324747    0.0871767 
H    -4.2831369    0.3767287   -1.5221897 
H    -5.0574787    2.4977417    0.5809858 
H    -4.3435160    1.5945289    1.9293779 
H    -5.4070069    0.7794123    0.7755695 
H    -4.7166633   -2.3246235    1.4870653 
