39
Energy = -880.1269090075
N    -1.8761103   -1.3808928    2.5440189 
C    -1.0298403   -1.6096881    1.3970658 
C    -1.8831295   -1.8829340    0.1434888 
C    -2.6618240   -0.6867218   -0.3198211 
C    -3.8796225   -0.3558500    0.2698428 
C    -4.5758259    0.7754110   -0.1272958 
C    -4.0679140    1.5924457   -1.1263360 
C    -2.8632030    1.2658242   -1.7303111 
C    -2.1682807    0.1353146   -1.3296456 
C    -0.0496627   -0.4561940    1.1526167 
O    -0.0952544    0.5785896    1.7895418 
N     0.8703697   -0.6665967    0.1827036 
C     1.7187960    0.4013668   -0.2740975 
C     3.0057490    0.5167654    0.5755448 
C     3.9525955   -0.6455167    0.3264987 
C     3.6980469    1.8609466    0.4261863 
C     1.9862682    0.1565232   -1.7390148 
O     1.6991612   -0.8567165   -2.3231149 
O     2.5857841    1.1881626   -2.3390567 
H    -2.2803970   -0.4540317    2.4635754 
H    -1.3047223   -1.3409268    3.3783576 
H    -0.4383925   -2.5121964    1.5847803 
H    -2.5606276   -2.6987110    0.4009854 
H    -1.2439405   -2.2363557   -0.6689427 
H    -4.2808813   -0.9958843    1.0471291 
H    -5.5214378    1.0173058    0.3429363 
H    -4.6126680    2.4750757   -1.4383327 
H    -2.4646773    1.8911791   -2.5202780 
H    -1.2331588   -0.1222313   -1.8150386 
H     0.7994301   -1.4673641   -0.4237912 
H     1.1713503    1.3441740   -0.1760404 
H     2.6300786    0.4492536    1.6002696 
H     4.3857190   -0.5980476   -0.6768586 
H     4.7783895   -0.6249681    1.0393587 
H     3.4445484   -1.6058960    0.4310650 
H     4.1246712    1.9911666   -0.5686600 
H     3.0039472    2.6839812    0.6079202 
H     4.5092534    1.9418612    1.1520764 
H     2.7273121    0.9324766   -3.2595264 
