43
Energy = -861.6898795080
N     2.6843763    2.0162568    0.1790820 
C     2.1504768    0.7313461   -0.2245987 
C     3.1885182   -0.4061658   -0.1060203 
C     3.8246754   -0.4477403    1.2754528 
C     4.2255823   -0.3901888   -1.2343087 
C     5.2722377    0.7124648   -1.1932901 
C     0.9076615    0.3593064    0.5879567 
O     0.7038581    0.8145980    1.7005466 
N     0.0697143   -0.5205784    0.0003300 
C    -1.0543038   -1.0855182    0.6992440 
C    -2.2760196   -0.1591224    0.7437611 
C    -2.8293814    0.1770250   -0.6313882 
C    -3.9419699    1.2201365   -0.6307603 
C    -5.3135648    0.7282660   -0.1967920 
N    -5.3474406    0.3463872    1.2081954 
C    -1.3873220   -2.3983109    0.0365143 
O    -0.8880261   -2.8004433   -0.9823692 
O    -2.3257942   -3.0743934    0.7038196 
H     2.6262473    2.0734807    1.1904803 
H     2.0815098    2.7534848   -0.1629528 
H     1.8600160    0.7958353   -1.2787658 
H     2.6255885   -1.3381547   -0.2365424 
H     3.0726609   -0.5599584    2.0584528 
H     4.5193269   -1.2870647    1.3490150 
H     4.3849539    0.4657763    1.4780896 
H     3.6908216   -0.3473283   -2.1897504 
H     4.7338746   -1.3606247   -1.2219633 
H     4.8122872    1.6991458   -1.1974327 
H     5.9401603    0.6297424   -2.0533707 
H     5.8888135    0.6433895   -0.2950303 
H     0.3139739   -0.9527881   -0.8764704 
H    -0.7604105   -1.2935287    1.7327885 
H    -1.9507469    0.7527990    1.2500114 
H    -3.0487517   -0.6151555    1.3611696 
H    -3.1991086   -0.7326329   -1.1200909 
H    -2.0096162    0.5451748   -1.2557914 
H    -3.6461912    2.0696147   -0.0025474 
H    -4.0473856    1.6210672   -1.6431711 
H    -6.0527160    1.5023784   -0.4528047 
H    -5.5732701   -0.1556543   -0.7884766 
H    -5.1665054    1.1518510    1.7941958 
H    -6.2629128    0.0008747    1.4625424 
H    -2.4956977   -3.8849497    0.2083403 
