31
Energy = -725.3965733392
N     2.4299189    1.2438017    0.8285879 
C     1.2179372    0.7838061    0.1714255 
C     1.6544826    0.3473429   -1.2480438 
C     3.0896916    0.8536016   -1.3615163 
C     3.5772686    0.7613221    0.0709815 
C     0.5717359   -0.3626995    0.9454405 
O     1.1658716   -0.9399696    1.8393410 
N    -0.6830462   -0.7253586    0.5921073 
C    -1.5103736   -0.0917293   -0.4026589 
C    -2.6432519   -1.1092513   -0.6015949 
C    -2.7985256   -1.7143080    0.7887172 
C    -1.3675163   -1.8003539    1.3011217 
C    -2.0858230    1.2302192    0.0747770 
O    -2.2005508    1.5753628    1.2160152 
O    -2.4994612    1.9718857   -0.9663838 
H     2.4447508    0.8867706    1.7756189 
H     0.4965272    1.6074321    0.1137072 
H     1.0057483    0.7489839   -2.0266051 
H     1.6348352   -0.7423749   -1.3288311 
H     3.0999245    1.8956868   -1.6881305 
H     3.6893223    0.2687931   -2.0594147 
H     3.8390098   -0.2793805    0.3121697 
H     4.4533740    1.3844002    0.2626104 
H    -0.9753608    0.0875619   -1.3345908 
H    -3.5512808   -0.6517827   -0.9925453 
H    -2.3086154   -1.8632649   -1.3167101 
H    -3.3817896   -1.0458117    1.4240659 
H    -3.2943369   -2.6840046    0.7726071 
H    -0.8984943   -2.7594273    1.0625110 
H    -1.2817424   -1.6530084    2.3772169 
H    -2.8901299    2.7759548   -0.6020969 
