40
Energy = -1116.944278785
N    -2.9756826    2.5800822   -1.2925676 
C    -2.5255459    1.7321182   -0.2065658 
C    -3.7420864    1.3937785    0.6538577 
O    -4.7522657    0.8375862   -0.1359379 
C    -1.8480971    0.5056617   -0.8187582 
O    -1.4505617    0.5129227   -1.9751303 
N    -1.6695473   -0.5431191   -0.0044631 
C    -1.0686806   -1.7693101   -0.4576886 
C     0.4461122   -1.6582841   -0.6656502 
C     1.2159575   -1.3059050    0.5952835 
C     2.6986681   -1.0925601    0.3471301 
N     2.9352899    0.0255963   -0.5332348 
C     4.0806508    0.7737128   -0.4173429 
N     4.8649621    0.6325307    0.5807384 
N     4.2610326    1.6322369   -1.4936946 
C    -1.4095865   -2.8306649    0.5599323 
O    -1.9722159   -2.6233235    1.6019926 
O    -0.9982741   -4.0407942    0.1752084 
H    -2.8884941    3.5595789   -1.0687970 
H    -2.4374459    2.3787274   -2.1266960 
H    -1.7630414    2.2070556    0.4295347 
H    -4.0766933    2.3195725    1.1439147 
H    -3.5078791    0.6862271    1.4531378 
H    -4.7551705    1.3789622   -0.9378823 
H    -2.1020863   -0.5762941    0.9044318 
H    -1.5196337   -2.0621483   -1.4113777 
H     0.5833071   -0.8937791   -1.4319543 
H     0.8043022   -2.6043803   -1.0787246 
H     1.1044854   -2.1044465    1.3364312 
H     0.8005288   -0.3973962    1.0392428 
H     3.1492986   -2.0126679   -0.0501634 
H     3.2171076   -0.8684906    1.2779756 
H     2.5807271   -0.0586094   -1.4703006 
H     5.6208803    1.3064829    0.5497813 
H     4.9229867    2.3704584   -1.3296541 
H     3.4165625    1.9538703   -1.9399296 
H    -1.2384152   -4.6596125    0.8760783 
C     0.3660635    2.1203062   -3.3860684 
O    -0.4968598    2.7997262   -3.7426830 
O     1.2659429    1.4734630   -3.0485910 
