30
Energy = -873.6150882683
N     2.0513351   -2.0678039   -0.3933334 
C     1.3168109   -0.8422047   -0.1845613 
C     1.8461337    0.2490667   -1.1219006 
C     3.2255271    0.7278095   -0.7139083 
C     3.2940944    1.5570673    0.5394405 
O     4.3086051    1.8586652    1.1033542 
O     2.0844270    1.9662729    0.9812784 
C    -0.1845691   -0.9891592   -0.4067577 
O    -0.6348767   -1.8516039   -1.1511986 
N    -0.9407946   -0.0906757    0.2428941 
C    -2.3600391    0.0951906    0.0558150 
C    -3.2164781   -1.1306337    0.4347287 
O    -3.2878125   -2.0700657   -0.5889502 
C    -2.7400824    1.3148777    0.8614664 
O    -1.9913439    1.9107565    1.5905460 
O    -4.0117042    1.6667437    0.6699698 
H     1.8976565   -2.7094877    0.3730138 
H     1.6870055   -2.5260371   -1.2216745 
H     1.4731012   -0.5157951    0.8474475 
H     1.8911855   -0.1704702   -2.1301432 
H     1.1514386    1.0895806   -1.1550743 
H     3.6741906    1.3420506   -1.4999635 
H     3.8969089   -0.1209048   -0.5709614 
H     2.2490289    2.5054815    1.7648610 
H    -0.4939174    0.5958546    0.8348541 
H    -2.5866432    0.3140015   -0.9947061 
H    -2.8039926   -1.5489297    1.3644582 
H    -4.2347370   -0.7955286    0.6356274 
H    -2.3819695   -2.2103524   -0.9155494 
H    -4.1784888    2.4459337    1.2148275 
