54
Energy = -1483.876317772
N    -2.3944511    4.1523149   -0.7841288 
C    -2.4625576    2.8073771   -0.2387984 
C    -3.0844289    1.8538879   -1.2607577 
C    -2.9969177    0.4270274   -0.8291624 
C    -2.3266827   -0.6348126   -1.5210046 
C    -1.6473546   -0.7179901   -2.7391725 
C    -1.0288074   -1.9034335   -3.0823333 
C    -1.0803752   -3.0189352   -2.2344701 
C    -1.7506948   -2.9708919   -1.0272162 
C    -2.3677535   -1.7738746   -0.6826162 
N    -3.0513868   -1.4175561    0.4470407 
C    -3.4078820   -0.0971261    0.3645765 
C    -1.1277196    2.2832528    0.2923278 
O    -0.8817950    2.2467268    1.4891351 
N    -0.2313604    1.9078881   -0.6407456 
C     0.9896420    1.2352607   -0.2921802 
C     0.7154137   -0.2271343    0.1445021 
C     1.8193504   -0.8676111    0.8986484 
C     2.2913005   -0.4787105    2.1956282 
C     1.9283953    0.5337560    3.0884629 
C     2.5874130    0.6200392    4.2985265 
C     3.6068891   -0.2818835    4.6340756 
C     3.9902951   -1.2884941    3.7684918 
C     3.3233956   -1.3755851    2.5513676 
N     3.4677493   -2.2577152    1.5127605 
C     2.5615964   -1.9506915    0.5274215 
C     1.8785313    1.2608304   -1.5070714 
O     1.4819327    1.4283957   -2.6320705 
O     3.1590079    1.0383493   -1.2097934 
H    -1.7505699    4.1916321   -1.5646385 
H    -2.0558897    4.8016143   -0.0859848 
H    -3.1031928    2.8437508    0.6447164 
H    -2.5742193    1.9707243   -2.2232064 
H    -4.1123723    2.1778108   -1.4385381 
H    -1.5895561    0.1358737   -3.4043515 
H    -0.4926609   -1.9747540   -4.0203892 
H    -0.5858675   -3.9356002   -2.5316837 
H    -1.7821225   -3.8315165   -0.3698555 
H    -3.1412767   -1.9781056    1.2732655 
H    -3.9129023    0.3801589    1.1887161 
H    -0.4955960    1.8495983   -1.6108251 
H     1.4757952    1.7653142    0.5273184 
H    -0.1747262   -0.1742631    0.7753812 
H     0.4459809   -0.8161291   -0.7345398 
H     1.1471477    1.2407465    2.8320092 
H     2.3130202    1.3967888    5.0015566 
H     4.1050681   -0.1876805    5.5912199 
H     4.7787030   -1.9831792    4.0335541 
H     4.1140086   -3.0226095    1.4858948 
H     2.5051422   -2.5378437   -0.3759396 
H     3.6429099    1.0173559   -2.0450619 
C    -1.4285576    0.7425795    3.8707995 
O    -1.7792308   -0.1704494    3.2494244 
O    -1.0959490    1.6334014    4.5257216 
