31
Energy = -948.8037155674
N     2.6425201    0.2526949   -1.8723928 
C     1.9880811   -0.4001230   -0.7661212 
C     2.8674401   -0.5285187    0.4863973 
O     4.0734925   -1.1970999    0.1973202 
C     0.7403235    0.3728365   -0.3900765 
O     0.6799391    1.5881217   -0.5292373 
N    -0.2478942   -0.3611318    0.1435497 
C    -1.4489147    0.1833362    0.7256031 
C    -2.3843415    0.9356781   -0.2658950 
O    -1.9720703    2.2607394   -0.4277000 
C    -2.5167323    0.1973152   -1.5845119 
C    -2.1663052   -0.9638395    1.3899635 
O    -1.8551522   -2.1233648    1.2826777 
O    -3.2029933   -0.5563737    2.1190629 
H     3.6280262    0.0233548   -1.8622094 
H     2.5438496    1.2553635   -1.7634393 
H     1.6904375   -1.4138033   -1.0640153 
H     3.1443274    0.4699903    0.8309860 
H     2.3162478   -1.0310507    1.2905692 
H     3.8770704   -2.1223210    0.0384568 
H    -0.1498706   -1.3642680    0.1886594 
H    -1.1992648    0.9127167    1.5035582 
H    -3.3619429    0.9865972    0.2196685 
H    -1.0114345    2.2524692   -0.5783911 
H    -3.2400848    0.7160572   -2.2126042 
H    -2.8567880   -0.8316971   -1.4391383 
H    -1.5636286    0.1714093   -2.1144557 
H    -3.6154379   -1.3427155    2.4982020 
C     0.0595754   -4.2661092    0.9420079 
O     0.8011407   -3.4965989    0.4893890 
O    -0.6569936   -5.0505189    1.3892924 
