37
Energy = -916.0236238614
N     0.6604214   -1.4602610    0.2686217 
C     0.8238230   -0.0890228    0.7158869 
C     1.6467749    0.7063745   -0.3042295 
C     3.0455518    0.1824801   -0.4349134 
C     3.9969462    0.4582311    0.5452167 
C     5.2793497   -0.0567173    0.4547856 
C     5.6345267   -0.8607537   -0.6202476 
C     4.6991047   -1.1405064   -1.6033110 
C     3.4149493   -0.6208725   -1.5095254 
C    -0.5160258    0.6170193    0.8873839 
O    -0.6050505    1.6540357    1.5195816 
N    -1.5447687    0.0211763    0.2553087 
C    -2.8769579    0.5385691    0.3072532 
C    -3.4415641    0.6883305   -1.1081348 
O    -3.5380180   -0.6315996   -1.6192912 
C    -4.7550042    1.4329005   -1.1952312 
C    -3.8096795   -0.2869291    1.1786035 
O    -4.9030720    0.0764008    1.5167520 
O    -3.2950482   -1.4683547    1.5405969 
H     1.5356274   -1.8166899   -0.0938270 
H     0.3848222   -2.0608321    1.0340348 
H     1.3225652   -0.0008188    1.6891727 
H     1.6543909    1.7477219    0.0215947 
H     1.1375604    0.6601512   -1.2705691 
H     3.7261390    1.0892335    1.3849982 
H     6.0073043    0.1730291    1.2235733 
H     6.6379247   -1.2620161   -0.6921187 
H     4.9682750   -1.7617787   -2.4490521 
H     2.6877266   -0.8353309   -2.2853845 
H    -1.3496546   -0.8482456   -0.2195374 
H    -2.8186270    1.5261084    0.7702124 
H    -2.6736112    1.2442509   -1.6623237 
H    -3.9161842   -0.5952704   -2.4985799 
H    -5.5403598    0.9146904   -0.6481839 
H    -4.6558403    2.4392046   -0.7846344 
H    -5.0522608    1.5297507   -2.2428239 
H    -3.9722567   -1.9039592    2.0729419 
