45
Energy = -1120.330458349
N     0.1106541    1.9878165   -0.2824616 
C     0.3842687    0.6787693   -0.8540928 
C     1.4131078   -0.1607975   -0.1035359 
C     2.8098858    0.4291848   -0.1373490 
C     3.8042021   -0.4177854    0.6314826 
N     5.1253150    0.1541397    0.5639636 
C     6.1897703   -0.4750392    1.1783888 
N     6.2012472   -1.6202601    1.7372941 
N     7.3437058    0.2950860    1.1484377 
C    -0.8982944   -0.1347008   -1.0371692 
O    -0.8583060   -1.3094344   -1.3690322 
N    -2.0353141    0.5417999   -0.8295535 
C    -3.3242321   -0.0614467   -1.0271136 
C    -3.7602624   -0.8910382    0.2061699 
C    -4.0153427   -0.0126996    1.4198935 
C    -4.9320812   -1.8128391   -0.0851585 
C    -4.2942215    1.0484930   -1.3506493 
O    -4.1001649    2.2130408   -1.1236946 
O    -5.4218814    0.5974106   -1.9111922 
H     0.7810217    2.6766347   -0.5881277 
H     0.1434791    1.9575614    0.7285577 
H     0.7505729    0.8372908   -1.8750587 
H     1.0782944   -0.2719465    0.9356264 
H     1.4134546   -1.1626511   -0.5370178 
H     3.1477752    0.5222668   -1.1746490 
H     2.8011913    1.4419560    0.2837373 
H     3.8377455   -1.4210816    0.1968050 
H     3.4625752   -0.5326058    1.6712029 
H     5.1563377    1.1593732    0.6266500 
H     5.2720402   -2.0191858    1.7961572 
H     8.1371936   -0.2320413    1.4762176 
H     7.5200321    0.7471247    0.2650993 
H    -1.9659200    1.5320080   -0.6373577 
H    -3.2683427   -0.7449722   -1.8785573 
H    -2.8859899   -1.5176699    0.4041530 
H    -4.9049376    0.6084602    1.2839516 
H    -3.1722171    0.6501807    1.6218898 
H    -4.1778462   -0.6288144    2.3057091 
H    -4.7370683   -2.4363376   -0.9586650 
H    -5.8530340   -1.2557670   -0.2610007 
H    -5.0994726   -2.4753152    0.7661561 
H    -5.9877662    1.3664807   -2.0554147 
C    -1.3153860   -4.0418811   -1.4973114 
O    -0.1811560   -4.2436371   -1.4039797 
O    -2.4594658   -3.8904536   -1.5899609 
