38
Energy = -1065.475649959
N     2.8498637    0.8105375   -0.8822254 
C     2.8334688   -0.5203685   -0.3039459 
C     3.1954790   -0.4752325    1.1841502 
C     2.3690025    0.5389389    1.9234098 
O     1.2430370    0.3601171    2.3104873 
O     3.0233157    1.6947878    2.0982806 
C     1.4764485   -1.2098216   -0.4674466 
O     1.3492106   -2.3920203   -0.2004136 
N     0.4928754   -0.4238350   -0.9236313 
C    -0.8408473   -0.9164231   -1.1179234 
C    -1.6385160   -0.9458654    0.2111518 
C    -2.8871372   -1.8079158    0.1254773 
C    -1.8934613    0.4341472    0.8196709 
C    -3.0193712    1.2593426    0.2142747 
C    -1.4660827   -0.1028700   -2.2230082 
O    -1.0317084    0.9389285   -2.6392898 
O    -2.5751306   -0.6697730   -2.7128189 
H     3.5503182    1.3996127   -0.4548416 
H     3.0232982    0.7838640   -1.8767474 
H     3.5471937   -1.2097826   -0.7706926 
H     4.2529831   -0.2342526    1.2949532 
H     2.9982808   -1.4594217    1.6065660 
H     2.4153743    2.3091040    2.5378053 
H     0.7068703    0.5443461   -1.1131059 
H    -0.7705336   -1.9520742   -1.4630746 
H    -0.9405110   -1.4524905    0.8835525 
H    -3.3504405   -1.8859980    1.1112732 
H    -2.6378754   -2.8177715   -0.2063840 
H    -3.6290488   -1.4069652   -0.5640993 
H    -2.1059389    0.2783460    1.8806166 
H    -0.9594740    1.0020981    0.7954476 
H    -2.8213093    1.5489296   -0.8182464 
H    -3.1510470    2.1831062    0.7811158 
H    -3.9713478    0.7263807    0.2393402 
H    -2.9135403   -0.0745266   -3.3932999 
C    -0.1035988    2.4714676    3.7061937 
O    -1.0230446    1.8431411    3.9990445 
O     0.8053834    3.1427436    3.4352927 
