31
Energy = -911.6920718809
N     1.6667444    1.3168028    1.6095012 
C     1.9886768    0.5715398    0.4044243 
C     2.5675064   -0.7876566    0.7748131 
O     2.7550509   -1.6219653   -0.3399848 
C     0.7821906    0.4485042   -0.5200595 
O     0.8590709    0.8715079   -1.6674986 
N    -0.3591002   -0.1072723   -0.0740306 
C    -1.5033340   -0.0939353   -0.9611041 
C    -2.6073207   -0.7735499   -0.1395949 
C    -2.1926141   -0.4963008    1.3009088 
C    -0.6803765   -0.6346015    1.2465706 
C    -1.8868611    1.3334578   -1.3025691 
O    -1.7496313    2.2789643   -0.5731896 
O    -2.4660368    1.4100843   -2.5032539 
H     2.4922523    1.4137223    2.1867704 
H     1.3616521    2.2503169    1.3648509 
H     2.7242940    1.0836485   -0.2322230 
H     1.8948050   -1.3151829    1.4511389 
H     3.5098037   -0.6230393    1.3179956 
H     3.1768557   -1.1181149   -1.0392109 
H    -1.2900584   -0.6161622   -1.8935371 
H    -2.5921171   -1.8458766   -0.3437748 
H    -3.5994168   -0.4000333   -0.3913942 
H    -2.6506059   -1.1797528    2.0153141 
H    -2.4570710    0.5256364    1.5777960 
H    -0.1553465   -0.0692488    2.0130933 
H    -0.3884215   -1.6891153    1.3132252 
H    -2.6775433    2.3396700   -2.6557579 
C     0.5685988    3.7602148   -1.5777070 
O     1.1201618    3.7690673   -0.5592942 
O     0.0330521    3.8012559   -2.6004178 
