24
Energy = -608.7589030717
N     1.8578647    1.7049682    0.4030165 
C     1.9039524    1.2684710   -0.9805797 
C     1.4111934   -0.1575030   -1.1647157 
O     2.0514057   -0.9566202   -1.8249268 
N     0.2341507   -0.4994902   -0.5937217 
C    -0.6880197    0.3694815    0.0963089 
C    -2.0284245   -0.3589233   -0.0773299 
C    -1.6190681   -1.8266550   -0.0357731 
C    -0.2909261   -1.8471015   -0.7810414 
C    -0.3670133    0.4999475    1.5726313 
O     0.2632342   -0.2831313    2.2275860 
O    -0.9820710    1.5705800    2.1005962 
H     2.1586827    2.6656659    0.4868388 
H     2.4681553    1.1397748    0.9785363 
H     2.8958270    1.2874459   -1.4419010 
H     1.2581417    1.9275643   -1.5721062 
H    -0.7098356    1.3698677   -0.3327490 
H    -2.4411654   -0.1000713   -1.0546629 
H    -2.7568476   -0.0794243    0.6830198 
H    -1.4725058   -2.1435087    0.9978778 
H    -2.3584918   -2.4847250   -0.4904638 
H    -0.4131539   -2.0452349   -1.8496186 
H     0.4105484   -2.5850840   -0.3919298 
H    -0.7855334    1.5636060    3.0449080 
