31
Energy = -924.8775305298
N     1.5803779    0.2334536   -1.4271998 
C     1.7702788   -0.5751859   -0.2355627 
C     2.8531939   -0.0960792    0.7158136 
C     4.2295193   -0.1994367    0.0960085 
O     4.4220500   -0.6399975   -1.0212113 
N     5.2406739    0.2484487    0.8767368 
C     0.4608742   -0.7724654    0.5259929 
O     0.4322923   -1.1273349    1.6894979 
N    -0.6369015   -0.5524503   -0.2266759 
C    -1.9704377   -0.6580189    0.3174184 
C    -2.6877081    0.6470550    0.3785540 
C    -2.8875495    1.5311620    1.4041223 
N    -3.5491106    2.6407055    0.9593282 
C    -3.7519053    2.4359112   -0.3178821 
N    -3.2445497    1.2483399   -0.7215486 
C    -2.7524306   -1.6384030   -0.5400708 
O    -3.0002534   -1.4491209   -1.7044489 
O    -3.1332187   -2.7267010    0.1226729 
H     2.3792817    0.1003752   -2.0339643 
H     1.5507778    1.2172586   -1.1862248 
H     2.0547162   -1.5750090   -0.5797316 
H     2.8152857   -0.6866423    1.6348066 
H     2.6663897    0.9421231    1.0112461 
H     5.0888678    0.5220201    1.8291843 
H     6.1825878    0.1506475    0.5420090 
H    -0.4729736   -0.2263158   -1.1696454 
H    -1.8582118   -1.0517738    1.3267531 
H    -2.5812933    1.4219621    2.4327080 
H    -4.2621901    3.1066480   -0.9915619 
H    -3.3190270    0.8157498   -1.6280286 
H    -3.6192062   -3.2870260   -0.4970960 
