40
Energy = -930.6447448190
N     0.6301006    0.2107732    3.0690585 
C    -0.3533025    0.3250423    1.9954335 
C    -0.2834819    1.7341100    1.4106824 
C    -1.1232286    2.0342865    0.1755996 
C    -2.6240361    1.7690607    0.3025949 
N    -3.0071832    0.4069949    0.0244567 
C    -3.0166311   -0.0273446   -1.2773337 
N    -3.0559703    0.8129550   -2.2441864 
N    -3.0434106   -1.4097169   -1.3810707 
C    -0.1563470   -0.8387058    1.0210674 
O    -1.0503126   -1.6744210    0.9027916 
N     0.9958074   -0.9788299    0.3446448 
C     2.1879878   -0.1660368    0.4505541 
C     3.3038627   -1.1868182    0.2009105 
C     2.6895918   -2.1174204   -0.8403884 
C     1.2138064   -2.1824897   -0.4555462 
C     2.2835791    0.9530816   -0.5685776 
O     2.9899377    1.9134146   -0.4281278 
O     1.5378012    0.7433831   -1.6612701 
H     0.4411765   -0.6007711    3.6425977 
H     0.5796713    1.0229634    3.6705193 
H    -1.3746593    0.1610889    2.3588613 
H    -0.6001369    2.4054344    2.2190329 
H     0.7599554    1.9921104    1.2150608 
H    -0.7603986    1.4754592   -0.6899139 
H    -0.9720719    3.0906468   -0.0641738 
H    -3.1570321    2.3956625   -0.4108850 
H    -2.9798066    2.0311481    1.3038404 
H    -2.7227238   -0.2917729    0.6917134 
H    -3.0949614    0.3327518   -3.1356510 
H    -2.8554607   -1.7488037   -2.3084713 
H    -2.5065249   -1.8934067   -0.6730751 
H     2.2562040    0.2830498    1.4396259 
H     4.2342528   -0.7179317   -0.1162149 
H     3.4906083   -1.7188187    1.1357154 
H     3.1528261   -3.1031397   -0.8459024 
H     2.8014277   -1.6917064   -1.8382151 
H     0.9714402   -3.0572374    0.1514524 
H     0.5497410   -2.1904593   -1.3207686 
H     1.6679015    1.5024136   -2.2439415 
