41
Energy = -1250.807709043
N    -2.5523210    0.8532858   -1.8028219
C    -2.0455822    0.6431985   -0.4628152
C    -3.1819113    0.2912645    0.4502757
C    -3.3294441   -0.4285611    1.6088284
N    -4.6294430   -0.3788866    2.0378479
C    -5.2615688    0.3523077    1.1570213
N    -4.4282294    0.7859977    0.1828097
C    -0.9435349   -0.4211493   -0.3968393
O    -0.7163156   -1.1632371   -1.3315380
N    -0.2456003   -0.4432162    0.7596381
C     0.7592557   -1.4315947    1.0260512
C     2.1833815   -0.8361948    1.0427083
C     2.5483539   -0.2072808   -0.2660658
C     2.3476528    1.1483661   -0.4938763
C     2.6404866    1.7230109   -1.7202008
C     3.1464302    0.9380464   -2.7482536
O     3.4420078    1.4367539   -3.9737796
C     3.3613248   -0.4184966   -2.5359430
C     3.0594329   -0.9759035   -1.3076939
C     0.4738401   -2.0806213    2.3595888
O    -0.2617625   -1.6277807    3.1947749
O     1.1757773   -3.2052336    2.5284448
H    -2.7311621   -0.0547743   -2.2188330
H    -1.8309380    1.2715633   -2.3760587
H    -1.5993508    1.5896193   -0.1304663
H    -2.5820397   -0.9770495    2.1602478
H    -6.3134759    0.5920807    1.1717080
H    -4.6384506    1.3097868   -0.6503989
H    -0.5850007    0.0876956    1.5460952
H     0.6976966   -2.1820525    0.2359149
H     2.2381355   -0.0958937    1.8457770
H     2.8821161   -1.6372289    1.2907286
H     1.9554149    1.7716414    0.3018387
H     2.4744029    2.7836062   -1.8788886
H     3.2086501    2.3663015   -4.0041549
H     3.7553899   -1.0219633   -3.3433801
H     3.2206940   -2.0379956   -1.1588429
H     0.9701001   -3.5407206    3.4102724
C     0.3265893   -0.6014985   -3.9466554
O     0.0132876    0.5103003   -3.8492277
O     0.6427196   -1.7023842   -4.0886609
