34
Energy = -1059.209064225
N     2.5905792   -1.9223035    0.2648240 
C     1.8115059   -0.7721399    0.6443798 
C     2.6331937    0.5046720    0.4390451 
O     3.7203114    0.3751976    1.3393274 
C     3.0990263    0.6935005   -0.9882131 
C     0.4892991   -0.8022619   -0.1058792 
O     0.0411759   -1.8453813   -0.5675730 
N    -0.1887470    0.3524195   -0.1888263 
C    -1.4599244    0.4454831   -0.8713425 
C    -2.6108229   -0.0984237   -0.0901618 
C    -3.6569036    0.4790344    0.5785846 
N    -4.4336426   -0.4779397    1.1661949 
C    -3.8664510   -1.6196064    0.8617536 
N    -2.7660584   -1.4452008    0.0979701 
C    -1.6745052    1.9065685   -1.2115176 
O    -1.0124388    2.8026765   -0.7617714 
O    -2.6716385    2.0801496   -2.0737847 
H     3.3046791   -2.1040969    0.9533395 
H     1.9993722   -2.7339411    0.1580822 
H     1.5226613   -0.7719177    1.7106124 
H     2.0310768    1.3724571    0.7468736 
H     4.3968587    1.0072203    1.0935807 
H     3.7416143    1.5744751   -1.0647468 
H     3.6475233   -0.1876252   -1.3180076 
H     2.2515796    0.8500106   -1.6582191 
H     0.1774578    1.2147202    0.1815509 
H    -1.3834289   -0.1059666   -1.8148706 
H    -3.8966710    1.5281938    0.6572813 
H    -4.2089617   -2.5965814    1.1649609 
H    -2.1121996   -2.1449315   -0.2209717 
H    -2.7564062    3.0292178   -2.2303331 
C    -0.3950130   -4.5639754    0.0342280 
O     0.7219525   -4.8078919    0.2003395 
O    -1.5240035   -4.3563665   -0.1190646 
