34
Energy = -1025.945573245
N     0.9723093    2.3381574   -0.3269383 
C     0.7218948    1.8721383    1.0245962 
C    -0.7583626    1.7213689    1.4136710 
C    -1.5382200    0.8941253    0.4352463 
C    -2.3452361    1.4940495   -0.5277386 
C    -3.0290705    0.7496933   -1.4743026 
C    -2.9106288   -0.6332068   -1.4744183 
O    -3.5804198   -1.3271905   -2.4280116 
C    -2.1178976   -1.2537180   -0.5146692 
C    -1.4424979   -0.4956631    0.4264940 
C     1.4800292    0.5749407    1.3128862 
O     1.2763723   -0.0803436    2.3199366 
N     2.4103740    0.2590255    0.3911272 
C     3.2136540   -0.9075883    0.5131724 
C     2.8470928   -1.9990945   -0.4619996 
O     1.9495431   -1.9699826   -1.2565506 
O     3.6778063   -3.0434962   -0.3333824 
H     0.3459010    1.8847019   -0.9827882 
H     0.8238292    3.3338172   -0.4015332 
H     1.1707482    2.5961085    1.7133554 
H    -1.1965992    2.7203072    1.4760014 
H    -0.7956970    1.2789747    2.4103200 
H    -2.4450947    2.5742578   -0.5366821 
H    -3.6523317    1.2254156   -2.2206981 
H    -3.3303824   -2.2520001   -2.3794373 
H    -2.0236243   -2.3346983   -0.5089585 
H    -0.8263655   -0.9902672    1.1676247 
H     2.4513531    0.8665594   -0.4148323 
H     3.0795209   -1.3029784    1.5237236 
H     4.2779533   -0.6877008    0.3912138 
H     3.3945707   -3.7100810   -0.9711032 
C    -0.0325494   -0.8621852   -2.9963038 
O     0.3240894    0.2137370   -2.7648443 
O    -0.3963893   -1.9260395   -3.2659026 
