24
Energy = -645.8676926354
N    -2.8558887   -1.3682844   -0.3201016 
C    -2.7342658   -0.3328346    0.6741951 
C    -1.4459000    0.4743297    0.7853610 
O    -1.3078439    1.3153831    1.6496481 
N    -0.4956210    0.1938892   -0.1411728 
C     0.8242946    0.7618227   -0.0790491 
C     1.8882827   -0.3304886    0.0578435 
O     1.7614540   -1.2641229   -0.9963462 
C     1.7632858   -1.0767096    1.3632558 
C     1.0631223    1.5848580   -1.3325738 
O     1.7410114    1.2338262   -2.2677268 
O     0.4161588    2.7481447   -1.3086975 
H    -2.2106057   -2.1330518   -0.1918015 
H    -2.8011375   -1.0277486   -1.2678310 
H    -2.9033171   -0.7581696    1.6660236 
H    -3.5326162    0.4002113    0.5344290 
H    -0.6159421   -0.6130396   -0.7313235 
H     0.8327704    1.4330353    0.7836206 
H     2.8700807    0.1583168    0.0111070 
H     1.9617688   -0.7804946   -1.8061558 
H     2.5348026   -1.8437092    1.4227608 
H     0.7906060   -1.5653544    1.4359560 
H     1.8716794   -0.3985121    2.2103947 
H     0.5838204    3.1886030   -2.1518156 
