36
Energy = -990.0272182200
N    -1.8436981    0.3694603    1.7917135 
C    -2.3656549    0.3393665    0.4446306 
C    -2.5292416    1.7571123   -0.0760505 
C    -3.6720610    2.4584323    0.5962824 
O    -4.6850838    1.9361278    0.9728976 
O    -3.4594691    3.7814045    0.7000473 
C    -1.5962139   -0.4850552   -0.5945326 
O    -1.8060663   -0.3706489   -1.7905535 
N    -0.6960681   -1.3487949   -0.0929422 
C     0.1821315   -2.1193102   -0.9211346 
C     1.2054967   -1.2487995   -1.6910859 
C     1.9268077   -0.2885345   -0.7958751 
C     3.0515035   -0.6767948   -0.0740041 
C     3.6693623    0.2000991    0.8045807 
C     3.1706618    1.4832092    0.9736199 
C     2.0572331    1.8866500    0.2507796 
C     1.4430274    1.0064467   -0.6270047 
C     0.8703900   -3.1229759   -0.0286019 
O     0.7862804   -3.1464055    1.1696965 
O     1.6060853   -3.9936959   -0.7279163 
H    -2.0072445   -0.4771434    2.3136956 
H    -0.8662112    0.6230823    1.8338612 
H    -3.3676192   -0.0991539    0.4876957 
H    -1.6118891    2.3328410    0.0585394 
H    -2.7421473    1.7245803   -1.1477850 
H    -4.2531652    4.1553239    1.1025412 
H    -0.5235355   -1.3802232    0.8982931 
H    -0.3983877   -2.6722963   -1.6657202 
H     1.9013833   -1.9150496   -2.2025553 
H     0.6387949   -0.7062584   -2.4468196 
H     3.4518783   -1.6763565   -0.2047999 
H     4.5447188   -0.1188663    1.3572013 
H     3.6534031    2.1690469    1.6588387 
H     1.6699809    2.8921373    0.3657122 
H     0.5803233    1.3248702   -1.2018295 
H     2.0143943   -4.5938279   -0.0917157 
