34
Energy = -893.0367359269
N    -3.0885556   -1.9180860    0.8578640 
C    -2.4670249   -1.1653992   -0.2128623 
C    -3.4615153   -0.0864966   -0.7014106 
O    -4.6723514   -0.7276182   -1.0088777 
C    -3.6637472    1.0275657    0.3096027 
C    -1.1476737   -0.5413249    0.2175022 
O    -0.8200618   -0.4662352    1.3902329 
N    -0.3886906   -0.0436061   -0.7779993 
C     0.8262954    0.6756705   -0.5059863 
C     1.9971886   -0.2741916   -0.2014896 
C     3.1309604    0.3684640    0.5735982 
C     4.3106856   -0.5732164    0.7036800 
O     4.6141928   -1.3616938   -0.1667861 
N     5.0278118   -0.4434857    1.8460136 
C     1.1083273    1.5386235   -1.7117150 
O     0.5558812    1.4238766   -2.7729070 
O     2.0658009    2.4431731   -1.4832409 
H    -2.7945718   -2.8836608    0.8335470 
H    -2.7646373   -1.5414315    1.7427862 
H    -2.2914322   -1.8310885   -1.0620476 
H    -3.0869371    0.3387201   -1.6377084 
H    -4.8073840   -1.3469480   -0.2774321 
H    -4.4246043    1.7145314   -0.0603471 
H    -4.0069957    0.6231490    1.2640059 
H    -2.7435065    1.5885563    0.4858354 
H    -0.6971780   -0.0667174   -1.7371389 
H     0.6644916    1.3217295    0.3624395 
H     1.5782612   -1.0886766    0.3904457 
H     2.3825126   -0.7129763   -1.1235496 
H     2.7805917    0.6932848    1.5572314 
H     3.4981733    1.2594183    0.0573075 
H     5.8328035   -1.0300048    1.9754610 
H     4.7436205    0.1685164    2.5863716 
H     2.2093690    2.9177781   -2.3121266 
