37
Energy = -1082.240877796
N     0.9119762    1.5254344   -0.6001225 
C     0.7906744    0.1647028   -0.1048551 
C    -0.0634343   -0.7754142   -0.9626332 
C    -1.4675253   -0.2984288   -1.0713654 
C    -2.4550624   -0.2979326   -0.0293144 
C    -2.4643281   -0.7494180    1.2936660 
C    -3.6125666   -0.5986892    2.0442584 
C    -4.7602720   -0.0059030    1.4999017 
C    -4.7847594    0.4447164    0.1945765 
C    -3.6256973    0.2924421   -0.5586721 
N    -3.3549067    0.6334120   -1.8564471 
C    -2.0622054    0.2777632   -2.1576057 
C     2.1719724   -0.4335438    0.1485110 
O     2.3802408   -1.6331932    0.1486151 
N     3.1208752    0.4908853    0.4146274 
C     4.4782440    0.1331839    0.6516124 
C     5.4120734    0.6635876   -0.4058759 
O     5.0814649    1.2391090   -1.4062887 
O     6.6879512    0.4143864   -0.0876464 
H     0.0115818    1.9839432   -0.5622708 
H     1.1960090    1.5124125   -1.5734518 
H     0.3268659    0.2303224    0.8865540 
H    -0.0193553   -1.7740873   -0.5234280 
H     0.3866349   -0.8503428   -1.9551867 
H    -1.5868592   -1.2198689    1.7220624 
H    -3.6327621   -0.9457924    3.0698686 
H    -5.6462344    0.0979274    2.1140696 
H    -5.6758483    0.8977466   -0.2237097 
H    -4.0053450    1.0466979   -2.4965230 
H    -1.6571993    0.4554663   -3.1417555 
H     2.8450455    1.4509776    0.2641693 
H     4.8358416    0.4746726    1.6276886 
H     4.5428457   -0.9587011    0.6511930 
H     7.2313628    0.7538816   -0.8092769 
C     3.5625119   -0.8626004   -2.8787687 
O     2.6374034   -0.1982261   -3.0886988 
O     4.4806217   -1.5371608   -2.6892143 
