36
Energy = -1155.509261268
N     1.0140691   -0.6498025    1.5954329 
C     0.9350092    0.1291159    0.3647799 
C     1.9977965   -0.1654451   -0.6878583 
C     3.4097364    0.1221885   -0.1869988 
C     4.4244690   -0.1339271   -1.2622602 
O     4.9866924    0.7087963   -1.9059202 
O     4.6256509   -1.4496165   -1.4552755 
C    -0.4463202   -0.1843536   -0.1939209 
O    -0.6706656   -1.2294849   -0.7732962 
N    -1.4034060    0.7247609    0.0848315 
C    -2.7859220    0.5098257   -0.2401821 
C    -3.5844037   -0.0577055    0.9469542 
C    -3.1266987   -1.4623498    1.2974967 
O    -3.6382268   -2.4346945    0.7814496 
N    -2.1437508   -1.5487258    2.2250074 
C    -3.3848250    1.8358808   -0.6467714 
O    -2.8754313    2.9021380   -0.4262640 
O    -4.5680197    1.6897413   -1.2433071 
H     1.8697137   -0.4572133    2.0975646 
H     0.9988804   -1.6386758    1.3710541 
H     0.9857665    1.1868301    0.6440206 
H     1.7962649    0.4441336   -1.5739229 
H     1.9047683   -1.2094306   -0.9927438 
H     3.6420034   -0.5180609    0.6673026 
H     3.5106611    1.1658391    0.1123112 
H     5.2567756   -1.5316114   -2.1808048 
H    -1.1580947    1.6294821    0.4522585 
H    -2.8444968   -0.1947644   -1.0727684 
H    -4.6351106   -0.1264616    0.6701498 
H    -3.4822500    0.6177916    1.7999024 
H    -1.7109529   -2.4543773    2.3098843 
H    -1.5405309   -0.7620828    2.4002617 
H    -4.9062316    2.5733753   -1.4358218 
C    -1.3135901   -3.9748889   -0.3197605 
O    -1.8364248   -4.0896668   -1.3403077 
O    -0.7624127   -3.9082489    0.7001226 
