29
Energy = -649.2533854671
N     3.3028131    1.4576411   -0.3248065 
C     3.3298570    0.3304249    0.5896366 
C     2.0318167   -0.4632317    0.6220027 
O     1.8354445   -1.3101183    1.4730553 
N     1.1659386   -0.1470385   -0.3603524 
C    -0.0689467   -0.8516051   -0.5676412 
C    -1.3015112    0.0202906   -0.2518874 
C    -2.5946259   -0.6821744   -0.6383331 
C    -1.2863802    0.4155900    1.2218673 
C    -2.2886911    1.5009137    1.5759568 
C    -0.1068294   -1.3034837   -2.0115037 
O     0.2104460   -0.6122580   -2.9420489 
O    -0.5493079   -2.5587654   -2.1530868 
H     4.2156566    1.6485440   -0.7085789 
H     2.9816540    2.2990257    0.1321257 
H     4.0980678   -0.3771432    0.2690080 
H     3.5619547    0.5851660    1.6286292 
H     1.4816600    0.5304430   -1.0413664 
H    -0.0615318   -1.7226188    0.0899830 
H    -1.2022070    0.9296234   -0.8580366 
H    -2.6496383   -0.8836190   -1.7092020 
H    -2.6908155   -1.6356854   -0.1128762 
H    -3.4582030   -0.0688476   -0.3818824 
H    -1.4678835   -0.4779138    1.8281328 
H    -0.2835487    0.7579312    1.4852979 
H    -2.1969671    1.7853050    2.6255406 
H    -3.3196825    1.1805544    1.4163551 
H    -2.1239883    2.3984003    0.9739575 
H    -0.5646510   -2.7452504   -3.1008460 
