20
Energy = -531.4082595120
N     3.5674228   -0.3825406    1.1087220 
C     2.2985943    0.2912733    1.2131358 
C     1.1624257   -0.3658690    0.4372161 
O     1.2366205   -1.5091737    0.0256757 
N     0.0586467    0.3956527    0.2757774 
C    -1.0962711   -0.0869234   -0.4315571 
C    -1.9601120   -1.0209958    0.4140186 
C    -1.8875315    1.1127799   -0.8891231 
O    -1.6652822    2.2475596   -0.5583827 
O    -2.8926186    0.7707349   -1.6999678 
H     3.4178826   -1.3757293    1.2429659 
H     3.9239135   -0.2932378    0.1658113 
H     1.9889661    0.3234091    2.2640199 
H     2.4058616    1.3335394    0.8997701 
H     0.0564546    1.3709732    0.5289790 
H    -0.7652426   -0.6351851   -1.3191140 
H    -1.3503676   -1.8673580    0.7259528 
H    -2.8086497   -1.3888581   -0.1616870 
H    -2.3287155   -0.5027805    1.3007589 
H    -3.3619977    1.5826291   -1.9284717 
