44
Energy = -1409.674194111
N     3.5954542    1.7245998   -1.0105080 
C     2.9271458    0.5184494   -1.4492197 
C     3.5711751   -0.7215270   -0.8245196 
C     3.3921078   -0.8023677    0.6816394 
S     4.1262175   -2.2656196    1.4364450 
C     5.8722820   -1.8758666    1.2706698 
C     1.4107092    0.4293645   -1.2602466 
O     0.7737764   -0.4990853   -1.7301191 
N     0.8350113    1.4138023   -0.5442850 
C    -0.5793489    1.4372804   -0.2995075 
C    -0.9720073    0.4690186    0.8449050 
C    -2.4172748    0.1377200    0.8913432 
C    -3.1315764   -0.6192349   -0.0957802 
C    -2.7513836   -1.2544623   -1.2819812 
C    -3.7158697   -1.9202126   -2.0113877 
C    -5.0494448   -1.9676017   -1.5814796 
C    -5.4504049   -1.3533061   -0.4109579 
C    -4.4788819   -0.6815637    0.3228042 
N    -4.5676854    0.0051705    1.5057396 
C    -3.3294812    0.4911175    1.8428258 
C    -0.9538528    2.8555635    0.0414993 
O    -0.1685349    3.6865642    0.4227951 
O    -2.2573814    3.0911438   -0.0949714 
H     3.2534046    2.5557055   -1.4699073 
H     3.5621026    1.8602189   -0.0107320 
H     3.0695815    0.4377227   -2.5308680 
H     3.1277722   -1.6065723   -1.2804925 
H     4.6323400   -0.7033291   -1.0782548 
H     2.3312669   -0.8614486    0.9375527 
H     3.7998388    0.0751919    1.1919812 
H     6.1875993   -1.8424872    0.2281618 
H     6.4203189   -2.6728884    1.7722598 
H     6.1090167   -0.9289907    1.7583979 
H     1.3762579    2.1894682   -0.2003419 
H    -1.1083363    1.1273237   -1.2028256 
H    -0.3937227   -0.4388152    0.6568246 
H    -0.6280677    0.8831294    1.7960233 
H    -1.7193914   -1.2290533   -1.6156762 
H    -3.4398143   -2.4193314   -2.9319912 
H    -5.7805208   -2.4996161   -2.1778751 
H    -6.4815049   -1.3969139   -0.0805742 
H    -5.3979141    0.1073570    2.0569073 
H    -3.1893914    1.0616672    2.7477050 
H    -2.4115867    4.0027149    0.1840222 
