13
Energy =
C    -0.4127614    1.6279866   -1.3192093 
C    -1.0099076    2.4160227   -0.1650523 
C    -0.8785911    3.9107826   -0.4767616 
O    -1.5215606    4.4527090   -1.3301242 
O     0.0321758    4.5337289    0.2642643 
N    -0.3204945    2.1121030    1.0860239 
H     0.1288892    1.2084348    1.0562979 
H    -0.9477355    2.1221487    1.8777692 
H     0.3642640    3.8414508    0.8760973 
H     0.6633447    1.8046054   -1.3867470 
H    -0.5825857    0.5582279   -1.1819653 
H    -2.0830447    2.2103027   -0.1129568 
H    -0.8706566    1.9368698   -2.2573022 
