26
Energy =
C    -0.8037531    0.8830822   -5.2408612 
C    -1.6705035    0.5053733   -4.0494369 
N    -1.4189404    1.2893562   -2.8626021 
C    -0.2717235    1.0775456   -2.1395614 
N     0.5319857    0.1311300   -2.4431084 
C    -0.9978433   -0.0646805   -6.4092435 
C    -0.0043135    0.1708498   -7.5376259 
N     1.3805531   -0.1398147   -7.1839356 
C    -0.4112533   -0.6270159   -8.7840970 
O    -1.5235403   -0.6109923   -9.2324915 
N    -0.1157031    2.0024366   -1.1136689 
O     0.5874518   -1.3146873   -9.3229715 
H    -2.0054094    0.0157484   -6.8216689 
H    -1.0290203    1.9085046   -5.5560379 
H    -0.0629993    1.2204984   -7.8439453 
H     1.9315766    0.6899520   -7.0266773 
H     0.2355094    0.8653158   -4.9047732 
H    -2.7307854    0.5989378   -4.2977250 
H    -0.9692193    2.2620092   -0.6445409 
H    -1.7336819    2.2446721   -2.8859095 
H     0.6209177    1.7784660   -0.4666594 
H    -1.4842563   -0.5375612   -3.7885293 
H    -0.8866123   -1.1007945   -6.0650354 
H     1.4258108   -0.6968303   -6.3404107 
H     1.3505938   -1.1257538   -8.7299344 
H     1.2630212    0.0339382   -1.7480470 
