16
Energy =
C     0.4980865    2.3693980   -0.0753849 
C    -0.3476953    2.0080213    1.1533591 
N    -1.7887816    2.0485899    0.9336176 
C     1.8954570    1.7616882   -0.1195838 
O     2.2587883    1.1076356   -1.0578353 
O     2.6787727    1.9966060    0.9216321 
C    -0.0237773    2.8957209    2.3580745 
O    -1.0685603    3.2264694    3.0803275 
O     1.0985983    3.2516265    2.6324941 
H    -0.0084026    2.0040254   -0.9668755 
H     0.5865987    3.4573664   -0.1576529 
H     2.2066978    2.5369402    1.5988450 
H    -1.8329210    2.8355105    2.5940779 
H    -2.1454478    1.1604069    0.6129987 
H    -2.0364849    2.7463196    0.2435797 
H    -0.0942265    0.9921771    1.4749511 
