14
Energy =
H    -1.3839930   -0.6627760    1.3187671 
S    -0.9581782   -1.2653149    0.1987941 
O     1.7441308   -0.9435570   -2.1980035 
C     1.4745070    0.0832782   -1.6427441 
C     1.3932022    0.2080572   -0.1136638 
H     1.3010867   -1.9236220    0.0230338 
H     2.4381774    0.2879323    0.2075810 
H     1.0095836   -1.1128106    1.5649740 
C     0.8206605   -1.0669031    0.4935430 
N     0.7239994    1.4484828    0.2360731 
H     1.0372178    1.8684084   -1.5711031 
O     1.2662771    1.2286519   -2.2779312 
H     1.0323545    1.8138140    1.1250374 
H    -0.2784557    1.2952188    0.2792923 
