19
Energy =
H    -1.0039458   -1.4811722    0.4924329 
H    -0.4657541    0.5768329   -0.6843373 
C    -0.9310614    1.0773754    1.2935211 
O    -1.9406911    0.5772481    1.7029857 
O     1.1860841   -0.6245071   -2.4647291 
C     0.6193549   -1.4994520   -1.8728123 
H     1.9711096   -1.6112079   -0.2716307 
C     0.9268057   -1.8704969   -0.4430278 
H     0.8240694   -2.9469686   -0.2838514 
C     0.0231857   -1.1154642    0.5359527 
H    -0.7457921   -2.8305406   -1.8698826 
O    -0.3876306   -2.1654399   -2.4637075 
H     0.3714386   -1.3142443    1.5536060 
N     1.2890646    1.0606217    0.2679615 
H     1.7205149    0.9748662   -0.6433669 
H     1.9238084    0.6701829    0.9531266 
C    -0.0015431    0.3887367    0.2900497 
H     0.3342711    2.4073961    1.1754219 
O    -0.5241689    2.2931933    1.6372877 
