20
Energy =
C    -1.4119603   -0.4002971   -2.3888354 
C    -0.7293890   -1.7703622   -2.3670081 
C     0.7339355   -1.6802923   -2.7343884 
N     1.6004390   -1.5910990   -1.7017622 
C    -1.1619548    0.3832328   -3.6714159 
N    -1.4810891   -0.3001284   -4.9167185 
O     1.1046807   -1.6520029   -3.8949422 
C    -1.8708284    1.7380817   -3.6256586 
O    -2.3029689    2.1418484   -4.8151636 
O    -1.9951696    2.3857264   -2.6238487 
H    -0.8646786   -2.2271048   -1.3843047 
H    -2.4883891   -0.5453661   -2.2557195 
H    -1.0831013    0.2127527   -1.5485843 
H    -2.0861357    1.3969354   -5.4182840 
H    -1.1895505   -2.4317786   -3.1021180 
H    -2.3147155   -0.8669781   -4.8211742 
H    -0.0971293    0.6323544   -3.7241655 
H    -0.7155242   -0.9131804   -5.1712704 
H     1.2940224   -1.6007981   -0.7478412 
H     2.5783177   -1.4742489   -1.9009577 
