20
Energy =
C    -1.1231522    1.1078472   -1.9662669 
N    -2.4186166    1.4878590   -2.1939945 
C    -2.4147146    2.3579120   -3.2285220 
N    -1.2000800    2.5610644   -3.6717846 
C    -0.3758810    1.7859178   -2.8877286 
C     1.0871856    1.7063706   -3.1393651 
C     1.4025294    0.9331298   -4.4239441 
C     0.9930483   -0.5372659   -4.2552437 
O     1.2609981   -1.1830789   -3.2789459 
N     0.7830753    1.4759865   -5.6283160 
O     0.3354147   -1.0192150   -5.2990261 
H    -3.3143456    2.8118604   -3.6131687 
H    -3.2248558    1.1744523   -1.6847854 
H     1.4272126    2.0414889   -6.1598063 
H    -0.0180149    2.0519734   -5.3800986 
H     2.4880212    0.9128841   -4.5577282 
H     1.5038498    2.7128955   -3.2232665 
H     1.5779589    1.2008311   -2.3083544 
H    -0.8497015    0.3929374   -1.2097876 
H     0.2689972   -0.2425003   -5.9061826 
