22
Energy =
C    -4.1182814    0.2626079    0.5607925 
C    -3.6420030   -1.0951629    1.0497318 
C    -2.3344859   -1.0371502    1.8384490 
C    -2.4874516   -0.3162298    3.1684268 
C    -1.7392428   -2.4329170    2.0457209 
N    -2.5735545   -3.3898726    2.7689603 
C    -1.3032697   -3.0458642    0.7077105 
O    -0.7475167   -2.4181437   -0.1494750 
O    -1.5708038   -4.3426698    0.6043625 
H    -2.0273974   -4.5618924    1.4465352 
H    -3.5569995   -3.1991879    2.6301075 
H    -2.3940481   -3.3767640    3.7612835 
H    -0.8066049   -2.3201572    2.6085515 
H    -3.3566844    0.7357855   -0.0627348 
H    -3.5062130   -1.7505030    0.1842067 
H    -5.0251116    0.1660405   -0.0381414 
H    -1.6049904   -0.5018841    1.2239607 
H    -4.4309057   -1.5455714    1.6655784 
H    -4.3430072    0.9393307    1.3869261 
H    -3.2100506   -0.8236511    3.8143977 
H    -1.5356790   -0.2682966    3.7026928 
H    -2.8361666    0.7071803    3.0302336 
