24
Energy =
C    -1.0435168    0.9783356    1.3619866 
C    -2.5342845    0.7159629    1.2334324 
N    -2.8098356   -0.1848139    0.1231600 
C    -0.4420404    1.6653298    0.1478298 
C     1.0575689    1.8636979    0.2680175 
C     1.6760990    2.5320425   -0.9500895 
N     1.2555390    3.9133041   -1.1823637 
C     3.2083212    2.4681380   -0.8931084 
O     3.8013763    3.5894571   -1.2885688 
O     3.8107295    1.4899713   -0.5508564 
H    -0.8673164    1.5830025    2.2576726 
H    -2.9160044    0.3529004    2.1988186 
H    -3.0477190    1.6614283    1.0307329 
H    -0.5261090    0.0266602    1.5343020 
H     1.5591091    0.9046111    0.4119793 
H     1.2926444    2.4654970    1.1554997 
H    -0.9415416    2.6313327    0.0059612 
H     3.0563144    4.1986996   -1.4872158 
H     0.9880057    4.3599173   -0.3144807 
H     0.4662038    3.9691214   -1.8080491 
H    -2.4451358   -1.1079244    0.3219590 
H    -3.8051386   -0.2888580   -0.0182624 
H    -0.6677678    1.0721484   -0.7427864 
H     1.4081084    1.9493569   -1.8383444 
