17
Energy =
C    -1.5791191   -0.6320324   -3.8870916 
C    -1.7018588    0.5570571   -2.9357574 
C    -1.5546232   -0.0887350   -1.5430900 
C    -1.4967142   -1.6064584   -1.8206498 
N    -2.0598246   -1.8057858   -3.1560378 
C    -2.2551210   -0.5000900   -5.2329785 
O    -2.5793783   -1.6796756   -5.7835254 
O    -2.4668322    0.5385036   -5.7854156 
H    -2.4078474    0.1577467   -0.9098547 
H    -2.6775247    1.0281530   -3.0628213 
H    -0.9518244    1.3203926   -3.1359029 
H    -0.6604732    0.2537637   -1.0213598 
H    -0.5167506   -0.8103749   -4.1034234 
H    -2.0338149   -2.2065813   -1.0867924 
H    -2.3460762   -2.3702895   -5.1429030 
H    -3.0704946   -1.7272297   -3.0771109 
H    -0.4604226   -1.9533321   -1.8358946 
