14
Energy =
C    -1.1933051   -0.1462425   -1.4620108 
C    -0.3503393   -0.8201245   -0.3910621 
N    -0.4657532   -0.2269078    0.9345022 
O    -0.8564628    1.2184975   -1.5791281 
C     1.1249080   -0.8081270   -0.8104830 
O     1.9631412   -0.6824686    0.2078246 
O     1.4808071   -0.9092746   -1.9527921 
H    -2.2461279   -0.1869877   -1.1753317 
H    -0.0458266    1.2736851   -2.0911683 
H    -1.0703698   -0.6744093   -2.4106406 
H    -0.6311264   -1.8769893   -0.3294824 
H    -1.2442862   -0.6080214    1.4517207 
H    -0.6103644    0.7725739    0.8404683 
H     1.3808004   -0.5336868    0.9852725 
