17
Energy =
C    -2.2906807    1.3987703   -0.3833887 
C    -1.6138042    0.1459766   -0.9007903 
O    -0.5853302    0.4260183   -1.8301828 
C    -1.0767427   -0.7828497    0.1954383 
N    -0.7765772   -2.1322397   -0.2712703 
C     0.1932741   -0.2187596    0.8474367 
O     1.0393295   -1.1583106    1.2420024 
O     0.4063266    0.9547560    0.9952690 
H    -1.8165395   -0.8575372    0.9993863 
H    -0.3922758   -2.0838951   -1.2087231 
H    -1.6045209   -2.7090054   -0.3048455 
H     0.6503596   -1.9951273    0.9020712 
H    -3.1247526    1.1440388    0.2745460 
H    -1.5889167    2.0143832    0.1781083 
H     0.0204700    1.0404631   -1.4036334 
H    -2.6820165    1.9736939   -1.2233127 
H    -2.3463088   -0.4406026   -1.4648926 
