24
Energy =
C    -0.7001207   -2.3472970    0.6019925 
C    -0.4257631   -1.7499349    1.8206991 
C    -0.7072829   -0.4078422    2.0581859 
C    -1.2838983    0.3239890    1.0247215 
C    -1.5652422   -0.2565212   -0.2005552 
C    -1.2713423   -1.5981023   -0.4177088 
C    -0.3600597    0.2491577    3.3597072 
C     0.9359251    1.0551448    3.2706768 
N     2.1356545    0.2787342    2.9810258 
O    -1.5256917   -2.2214931   -1.5945331 
C     1.1540966    1.8872722    4.5396208 
O     2.4267741    1.9540734    4.9162839 
O     0.2661740    2.4488089    5.1161246 
H    -1.5273508    1.3695795    1.1813028 
H    -0.2493035   -0.5050482    4.1453973 
H    -1.1512578    0.9253203    3.6862478 
H     0.0066761   -2.3511622    2.6135939 
H    -1.9305783   -1.6008892   -2.2031021 
H    -2.0223605    0.3326285   -0.9892870 
H     2.9040537    1.3903598    4.2698334 
H     2.2577352    0.1460784    1.9874906 
H     2.0742427   -0.6436290    3.3944412 
H     0.8250764    1.7946353    2.4706169 
H    -0.4845939   -3.3938047    0.4284899 
