19
Energy =
C    -0.8927327    2.1514820    1.4495394 
C    -1.0839833    2.9980330    0.2018198 
C    -0.1004803    4.1722911    0.1774639 
N     1.3141514    3.8272966    0.0653068 
C    -0.4702367    5.1728417   -0.9258665 
O     0.5815506    5.6751754   -1.5628435 
O    -1.6003003    5.4910684   -1.1688233 
C    -0.9966257    2.1550062   -1.0625053 
H     0.0959442    1.6837232    1.4665794 
H    -1.6312343    1.3490571    1.4900826 
H    -0.9977465    2.7485733    2.3585045 
H    -1.7591495    1.3748168   -1.0502527 
H    -0.0315810    1.6454910   -1.1517481 
H     1.4433117    2.9666929   -0.4504108 
H    -1.1530952    2.7577872   -1.9586182 
H    -2.0762273    3.4548547    0.2296495 
H     1.7500554    3.7139144    0.9677178 
H    -0.2272762    4.7351382    1.1083643 
H     1.3509625    5.2214919   -1.1537526 
