31
Energy = -1019.927622600
N    -2.9738846   -0.9319205    0.6578285 
C    -2.4773497   -0.3306794   -0.5603750 
C    -2.8907546    1.1412860   -0.5647371 
O    -4.2758528    1.2625047   -0.4114720 
C    -0.9872118   -0.4299832   -0.8597391 
O    -0.5097820    0.1022537   -1.8552119 
N    -0.2436808   -1.1166542    0.0204458 
C     1.1861731   -1.2640641   -0.1291397 
C     1.9444596   -0.0155505    0.1912082 
C     2.8154560    0.3398900    1.1867664 
N     3.1977784    1.6432030    1.0385273 
C     2.5675202    2.0719646   -0.0270889 
N     1.8033131    1.1050778   -0.5816355 
C     1.6251012   -2.3867402    0.7866849 
O     0.9656991   -2.7966739    1.7052234 
O     2.8230498   -2.8596904    0.4643666 
H    -2.5001519   -0.6063396    1.4898135 
H    -2.9928980   -1.9397458    0.6429034 
H    -2.9841391   -0.8084457   -1.4043702 
H    -2.6041364    1.5997187   -1.5095100 
H    -2.3498743    1.6618808    0.2422521 
H    -4.5240665    0.6052227    0.2490862 
H    -0.6562127   -1.4983027    0.8562180 
H     1.3974308   -1.5584823   -1.1623422 
H     3.1961044   -0.2716966    1.9902757 
H     2.6302954    3.0675940   -0.4377591 
H     1.1576652    1.1567003   -1.3597205 
H     3.0515298   -3.5416463    1.1092139 
C     0.3191857   -0.6036393    3.7023016 
O    -0.6895792   -0.4000123    3.1685479 
O     1.3169447   -0.7992466    4.2472241 
