37
Energy = -970.1597051327
N     1.7920925   -0.0730207   -2.4262927 
C     0.8699781   -0.1727259   -1.3193650 
C     1.3208187    0.7366757   -0.1584547 
C     2.5017735    0.1830951    0.5783383 
C     2.3163272   -0.5233816    1.7632090 
C     3.3921124   -1.0762332    2.4414662 
C     4.6762829   -0.9278438    1.9400334 
C     4.8735196   -0.2245603    0.7603117 
C     3.7955079    0.3259075    0.0847129 
C    -0.5469360    0.2372828   -1.6988477 
O    -0.7782970    1.0642873   -2.5597795 
N    -1.5424234   -0.3470248   -0.9841420 
C    -2.8832925    0.1539279   -1.0971880 
C    -3.8762612   -0.7308323   -0.3432595 
C    -3.6016381   -1.1061555    1.1086096 
O    -4.1634596   -2.0655698    1.5904601 
N    -2.7086452   -0.3544389    1.7991336 
C    -2.9706265    1.6037051   -0.6417338 
O    -2.3231262    2.0868748    0.2527989 
O    -3.8982688    2.2760194   -1.3165387 
H     1.5568301    0.7582707   -2.9588162 
H     1.6771128   -0.8562991   -3.0553573 
H     0.8604778   -1.2057670   -0.9590797 
H     1.5462580    1.7186222   -0.5819525 
H     0.4898320    0.8788255    0.5372725 
H     1.3137591   -0.6361940    2.1638864 
H     3.2274101   -1.6187511    3.3647061 
H     5.5201605   -1.3549640    2.4679971 
H     5.8742504   -0.1035380    0.3630585 
H     3.9492554    0.8603561   -0.8438299 
H    -1.3019422   -0.8822580   -0.1663886 
H    -3.1657890    0.1540228   -2.1509929 
H    -3.9730496   -1.6792676   -0.8720195 
H    -4.8652342   -0.2667740   -0.3694284 
H    -2.6273533   -0.5586633    2.7808704 
H    -2.4037275    0.5524546    1.4685205 
H    -3.9235886    3.1740353   -0.9620184 
