37
Energy = -932.3255979437
N    -3.1838841    2.0521544   -0.4625686 
C    -3.0327955    0.8168915    0.2785091 
C    -4.3416660    0.0736357    0.5507840 
C    -2.1240594   -0.0941590   -0.5335912 
O    -2.1696418   -0.1262513   -1.7513584 
N    -1.3124903   -0.8906354    0.1877488 
C    -0.4195455   -1.8273989   -0.4366595 
C     0.8343692   -1.1472482   -1.0138405 
C     1.6641031   -0.4782214    0.0644841 
C     2.7511137    0.4414456   -0.4581462 
C     3.5383212    1.1017181    0.6624187 
N     2.6589583    1.8519741    1.5518463 
C    -0.0261888   -2.8513870    0.5971633 
O    -0.2185120   -2.7458797    1.7801283 
O     0.6090815   -3.8933274    0.0522031 
H    -4.0344125    2.5275246   -0.1939787 
H    -3.2494935    1.8223774   -1.4481951 
H    -2.5438264    1.0308967    1.2356713 
H    -5.0241603    0.7156360    1.1118864 
H    -4.8192888   -0.2000646   -0.3920420 
H    -4.1777361   -0.8345722    1.1355048 
H    -1.2760392   -0.8108716    1.1912147 
H    -0.9453207   -2.3312377   -1.2511756 
H     0.4771697   -0.4125623   -1.7384923 
H     1.4182433   -1.8901078   -1.5623409 
H     2.1208071   -1.2354008    0.7128103 
H     1.0032861    0.1153040    0.6972592 
H     3.4464189   -0.1083254   -1.1001262 
H     2.2981237    1.2152611   -1.0897514 
H     4.0258291    0.3261420    1.2612908 
H     4.3383893    1.7140777    0.2230634 
H     2.2111011    2.6086878    1.0495248 
H     3.1896355    2.2729765    2.3022961 
H     0.8637748   -4.4788057    0.7762506 
C     0.9507140   -0.0968094    3.3522719 
O    -0.0784658    0.3629771    3.0861875 
O     1.9626500   -0.5702417    3.6468792 
