29
Energy = -947.6259425212
N     4.2984951   -0.8925197   -0.4154363 
C     3.4697481   -0.0752535    0.4382781 
C     2.0737802    0.0137906   -0.1443103 
O     1.8637902   -0.1175948   -1.3373667 
N     1.0914673    0.2865430    0.7380828 
C    -0.2655854    0.4857355    0.3107448 
C    -0.9689925   -0.8625423    0.0756072 
C    -2.3522142   -0.7794346   -0.5415287 
C    -3.4630018   -0.6135232    0.4535520 
O    -3.3683244   -0.7445967    1.6453840 
O    -4.6281481   -0.3326920   -0.1462057 
C    -0.9522690    1.3244703    1.3596744 
O    -0.5592484    1.4543516    2.4881545 
O    -2.0598103    1.9096064    0.8972094 
H     5.2605988   -0.5898282   -0.3953312 
H     3.9561545   -0.8019009   -1.3655218 
H     3.8153680    0.9652627    0.5434602 
H     3.4164143   -0.4918095    1.4497360 
H     1.2797399    0.3816549    1.7229383 
H    -0.2595209    1.0378394   -0.6330298 
H    -1.0116625   -1.4104780    1.0187972 
H    -0.3098587   -1.4076208   -0.5999804 
H    -2.5743865   -1.7055731   -1.0808113 
H    -2.4299099    0.0162411   -1.2855803 
H    -5.2952436   -0.2811608    0.5494498 
H    -2.4822933    2.3496096    1.6466529 
C    -1.9997590   -0.5160382    4.1884989 
O    -1.2196417   -1.3234825    3.9088426 
O    -2.7754305    0.2835973    4.4982710 
