46
Energy = -1349.267031264
N    -1.5976749   -1.6843068   -2.0807428 
C    -0.5370126   -0.7138983   -1.9685750 
C    -1.1189278    0.6798638   -1.6947422 
C    -1.8494898    0.7890993   -0.3986567 
C    -3.2367481    0.5030250   -0.1626440 
C    -4.2941450    0.0851564   -0.9772432 
C    -5.5419544   -0.0898619   -0.4144253 
C    -5.7618176    0.1426092    0.9504163 
C    -4.7381938    0.5552929    1.7805794 
C    -3.4821303    0.7329058    1.2111672 
N    -2.2988661    1.1341536    1.7694262 
C    -1.3246939    1.1695559    0.8056048 
C     0.5348748   -1.1270581   -0.9509612 
O     0.5185685   -2.2100293   -0.3990792 
N     1.5440147   -0.2368543   -0.7711966 
C     2.6538943   -0.5052397    0.0921214 
C     3.9629332   -0.4169910   -0.7092112 
C     5.2571726   -0.5628430    0.0674731 
C     5.6978830    0.7160437    0.7177099 
O     5.1935331    1.7959119    0.5500379 
O     6.7641469    0.5355771    1.5079717 
C     2.6105304    0.4007637    1.3071220 
O     1.9624490    1.4066675    1.4125437 
O     3.3788774   -0.0663566    2.3006404 
H    -1.1953459   -2.6137064   -2.0707453 
H    -2.1760456   -1.6373723   -1.2489540 
H    -0.0156578   -0.6636371   -2.9341009 
H    -0.3284504    1.4326637   -1.7389228 
H    -1.7972977    0.9057843   -2.5205765 
H    -4.1296956   -0.1138657   -2.0294418 
H    -6.3679738   -0.4152865   -1.0346984 
H    -6.7525377   -0.0059779    1.3620209 
H    -4.9107947    0.7334219    2.8354682 
H    -2.1627247    1.3769579    2.7318788 
H    -0.3156856    1.4640789    1.0503503 
H     1.4910795    0.6758612   -1.1895194 
H     2.5211175   -1.5262956    0.4589797 
H     3.9004726   -1.2061887   -1.4594062 
H     3.9767334    0.5350674   -1.2425116 
H     6.0656987   -0.8559989   -0.6088773 
H     5.2099681   -1.3421172    0.8301625 
H     7.0046632    1.4025793    1.8576445 
H     3.3238477    0.5735870    3.0217640 
C     2.7712521    3.4827798   -0.4383844 
O     2.5195106    2.7651841   -1.3151150 
O     3.0128447    4.2263848    0.4084519 
