30
Energy = -944.7318680572
N     2.4942156   -1.1556859    0.1859211 
C     2.1605550    0.1927852    0.5700284 
C     2.6951721    1.1704258   -0.4732681 
C     4.1752615    1.0249259   -0.6795169 
O     4.7105303    0.8127339   -1.7320938 
O     4.8602524    1.1843336    0.4651831 
C     0.6900279    0.5389595    0.8183606 
O     0.3655418    1.6179599    1.2723722 
N    -0.2031524   -0.4222501    0.4869153 
C    -1.5958785   -0.2681627    0.7671211 
C    -2.3875872    0.0192596   -0.4727410 
C    -2.0081290    0.1215687   -1.7822778 
N    -3.0841805    0.4255982   -2.5705150 
C    -4.1019048    0.5067526   -1.7562362 
N    -3.7339406    0.2720882   -0.4715002 
C    -2.1031384   -1.5282154    1.4471997 
O    -1.4957410   -2.5571903    1.5298168 
O    -3.3403169   -1.3579701    1.9359332 
H     2.2377124   -1.8577044    0.8625303 
H     2.1780442   -1.4127234   -0.7376423 
H     2.6615487    0.4098446    1.5170644 
H     2.2133080    1.0079182   -1.4384000 
H     2.4724186    2.1867859   -0.1440122 
H     5.7923690    1.0652872    0.2470718 
H     0.1289311   -1.3431304    0.2545791 
H    -1.6934486    0.5685214    1.4693934 
H    -1.0175687    0.0070829   -2.1906394 
H    -5.1204879    0.7296575   -2.0336447 
H    -4.3337915    0.2409355    0.3337990 
H    -3.6164226   -2.2001914    2.3193980 
