46
Energy = -1249.645251917
N    -1.1021443    1.9493450   -0.3719142 
C    -0.9474106    1.1566383    0.8303626 
C    -1.7492048   -0.1415214    0.7438124 
C    -3.2625132    0.0162980    0.7845601 
C    -3.8927681    0.5845458   -0.4810538 
N    -5.3351629    0.5425080   -0.4350620 
C    -6.0336585   -0.6073134   -0.7294030 
N    -5.5645341   -1.7627324   -0.9997641 
N    -7.4072700   -0.4053205   -0.7254210 
C     0.4816617    0.8040511    1.2566082 
O     0.7098560    0.2848287    2.3361721 
N     1.4521077    1.0962045    0.3705263 
C     2.8235581    0.7431279    0.5997487 
C     3.0511118   -0.7415022    0.2659060 
C     4.4743439   -1.2498460    0.3741165 
C     5.2943889   -0.9615949   -0.8681319 
O     4.8050001   -0.5399784   -1.8981675 
N     6.6148635   -1.2303098   -0.7592492 
C     3.6789984    1.6918575   -0.2050877 
O     3.2819458    2.3761439   -1.1094162 
O     4.9469866    1.7103123    0.2197244 
H    -0.5801398    2.8135482   -0.3448338 
H    -0.8535923    1.4365224   -1.2075853 
H    -1.3450330    1.7359687    1.6707839 
H    -1.4360883   -0.7629657    1.5836184 
H    -1.4510955   -0.6768171   -0.1675041 
H    -3.5451686    0.6472339    1.6326898 
H    -3.7064804   -0.9645098    0.9747584 
H    -3.5169163    0.0380731   -1.3582401 
H    -3.5854405    1.6196800   -0.6159013 
H    -5.8111962    1.3911405   -0.6861381 
H    -4.5552793   -1.7436656   -1.0867476 
H    -7.7430986    0.1553638    0.0416817 
H    -7.8998404   -1.2801632   -0.8075827 
H     1.2274175    1.4985108   -0.5238779 
H     3.0490123    0.8971603    1.6586793 
H     2.4104838   -1.2881965    0.9586390 
H     2.6857873   -0.9211045   -0.7455734 
H     4.4585223   -2.3371835    0.4985112 
H     4.9864651   -0.8474731    1.2523269 
H     7.1979855   -1.1170818   -1.5689212 
H     7.0142084   -1.5958927    0.0840887 
H     5.4365366    2.2793651   -0.3878999 
C     2.6339082    0.8003824   -3.5023845 
O     1.7498322    0.3627881   -2.8918206 
O     3.4855951    1.2403474   -4.1436969 
