37
Energy = -987.1388202119
N     1.3951243    1.6098762   -1.6483859 
C     0.7431944    0.5529947   -0.9087901 
C     1.4371923    0.3365328    0.4393339 
C     2.8822805   -0.0298683    0.2622322 
C     3.2527031   -1.3532072    0.0388832 
C     4.5796992   -1.6955248   -0.1690670 
C     5.5602752   -0.7142562   -0.1557671 
C     5.2032984    0.6072378    0.0670131 
C     3.8743115    0.9458984    0.2741989 
C    -0.7378389    0.9105092   -0.8271575 
O    -1.2909194    1.4903835   -1.7420224 
N    -1.4057444    0.5107231    0.2782488 
C    -2.8240263    0.7430725    0.4112769 
C    -3.6681018   -0.3930462   -0.0663889 
C    -4.4524590   -0.5520607   -1.1745812 
N    -5.0018905   -1.8029974   -1.1982942 
C    -4.5610582   -2.3993089   -0.1208596 
N    -3.7479450   -1.5913897    0.6007617 
C    -3.1230798    0.9708349    1.8775855 
O    -2.5461624    0.3933797    2.7644963 
O    -4.1214546    1.8241778    2.0761074 
H     0.7758307    1.9184894   -2.3875546 
H     2.2594989    1.2840692   -2.0563139 
H     0.7510544   -0.4153157   -1.4407798 
H     0.9469753   -0.4740136    0.9872268 
H     1.3524010    1.2526670    1.0278530 
H     2.4910688   -2.1262054    0.0317572 
H     4.8494271   -2.7311614   -0.3374468 
H     6.5982972   -0.9793604   -0.3147754 
H     5.9630403    1.3794390    0.0811466 
H     3.5952479    1.9799993    0.4373970 
H    -0.9264310    0.1079429    1.0641907 
H    -3.0834581    1.6244677   -0.1740146 
H    -4.6313451    0.1682988   -1.9568239 
H    -4.7975677   -3.4061438    0.1867099 
H    -3.3009603   -1.8072344    1.4755137 
H    -4.2903778    1.8601001    3.0266903 
