36
Energy = -1275.063101962
N     2.1436046   -0.4183525   -2.1885449 
C     1.6396599   -1.3961710   -1.2477613 
C     2.5624741   -1.5100339   -0.0321633 
C     2.5871637   -0.2568418    0.8258561 
S     3.6495238   -0.3722013    2.2777085 
C     5.2688508   -0.3502162    1.4996658 
C     0.1977315   -1.2443891   -0.7516951 
O    -0.3235887   -2.1069470   -0.0694421 
N    -0.4344938   -0.1050112   -1.1004870 
C    -1.7902395    0.1783148   -0.7148769 
C    -1.8520147    0.6041106    0.7645371 
C    -3.1991613    1.0396287    1.3093947 
C    -4.2822423    0.0055935    1.2018079 
O    -4.1541728   -1.1157718    0.7943588 
O    -5.4588155    0.4860502    1.6405375 
C    -2.2958991    1.2496914   -1.6475589 
O    -1.5935981    1.9436435   -2.3355825 
O    -3.6278786    1.3627490   -1.6257266 
H     2.2215033    0.5097585   -1.7992302 
H     1.6052376   -0.3763370   -3.0412943 
H     1.6516740   -2.3695229   -1.7468160 
H     3.5646719   -1.7367461   -0.3997197 
H     2.2259765   -2.3481451    0.5778125 
H     1.5917158   -0.0515814    1.2274417 
H     2.8957812    0.6252983    0.2570561 
H     5.4412253   -1.2353013    0.8879641 
H     5.3989510    0.5480608    0.8941217 
H     6.0032850   -0.3374763    2.3044064 
H     0.0193090    0.5690903   -1.6944124 
H    -2.4055744   -0.7166279   -0.8304478 
H    -1.4895420   -0.2603810    1.3226652 
H    -1.1353374    1.4160567    0.9111993 
H    -3.0983122    1.2826878    2.3712245 
H    -3.5669929    1.9521171    0.8369400 
H    -6.0988325   -0.2309286    1.5530441 
H    -3.8619433    2.0770323   -2.2320828 
