38
Energy = -1008.218607762
N    -0.3196515    1.9326628    2.4312859 
C    -0.4754186    0.9799356    1.3553235 
C     0.4291154   -0.2445079    1.6027909 
C     1.8617947    0.0543749    1.3497722 
C     2.5413692   -0.0941705    0.0961686 
C     2.1624562   -0.5773655   -1.1590889 
C     3.0873030   -0.5825274   -2.1839438 
C     4.3927867   -0.1146463   -1.9813606 
C     4.7987494    0.3672950   -0.7517056 
C     3.8636203    0.3743494    0.2768462 
N     3.9681261    0.7877773    1.5775175 
C     2.7670407    0.5980777    2.2144675 
C    -1.9080686    0.4809285    1.2185587 
O    -2.6430168    0.3644047    2.1802653 
N    -2.2758434    0.1249940   -0.0371525 
C    -3.5686452   -0.4280506   -0.3359038 
C    -4.2458404    0.3374879   -1.4600980 
O    -3.4678670    0.3229435   -2.6337077 
C    -3.4528752   -1.8997963   -0.6984716 
O    -3.8554596   -2.3829679   -1.7268473 
O    -2.8448845   -2.6131905    0.2488606 
H    -0.6649234    2.8411326    2.1515853 
H    -0.9078249    1.6300756    3.2013558 
H    -0.1603119    1.4496868    0.4187463 
H     0.1069399   -1.0704039    0.9624409 
H     0.2650198   -0.5683741    2.6332500 
H     1.1576723   -0.9491432   -1.3273231 
H     2.8047114   -0.9545180   -3.1610611 
H     5.0967941   -0.1317455   -2.8040985 
H     5.8095443    0.7270555   -0.5992941 
H     4.7925274    1.1668404    2.0021373 
H     2.6342944    0.8863524    3.2445187 
H    -1.6736923    0.3336158   -0.8161391 
H    -4.1513705   -0.3592181    0.5887465 
H    -5.2452318   -0.0729493   -1.6347405 
H    -4.3500050    1.3798526   -1.1572213 
H    -3.5267259   -0.5701030   -2.9864820 
H    -2.8023089   -3.5261650   -0.0624980 
