36
Energy = -1125.889423609
N    -2.9859944    0.7494924    1.4985014 
C    -2.3231910    0.1141121    0.3732746 
C    -3.1985947    0.2189461   -0.8844137 
C    -2.4844411   -0.2980538   -2.1246726 
C    -4.5163158   -0.5085152   -0.6734073 
C    -0.9649060    0.7513586    0.1060565 
O    -0.8320198    1.9625350    0.0468803 
N     0.0735903   -0.0990767   -0.0463711 
C     1.3682297    0.3634044   -0.4679294 
C     2.1541807    1.0715157    0.6392334 
C     2.2474026    0.3041514    1.9437787 
S     3.1306487   -1.2657794    1.8704118 
C     4.8082235   -0.6847541    1.5979281 
C     2.0757337   -0.8072275   -1.1130086 
O     1.5657985   -1.8721380   -1.3359146 
O     3.3155716   -0.4922048   -1.5077465 
H    -2.5050338    0.5295468    2.3610609 
H    -2.9133974    1.7542835    1.3783648 
H    -2.1890382   -0.9479936    0.6090226 
H    -3.4006102    1.2873399   -1.0245619 
H    -3.1444814   -0.2429647   -2.9920157 
H    -1.5872468    0.2784939   -2.3567789 
H    -2.1909200   -1.3452165   -2.0033336 
H    -5.1868190   -0.3441400   -1.5192775 
H    -5.0082566   -0.1682088    0.2365826 
H    -4.3491163   -1.5866762   -0.5881121 
H    -0.0945677   -1.0871314   -0.1575396 
H     1.2356349    1.1025114   -1.2690434 
H     1.6397440    2.0155831    0.8308456 
H     3.1459468    1.3179035    0.2570430 
H     1.2477057    0.0444798    2.2967093 
H     2.7063644    0.9295675    2.7128992 
H     5.1212528   -0.0125303    2.3979605 
H     4.9108413   -0.1901664    0.6323016 
H     5.4519655   -1.5638207    1.6100671 
H     3.6761152   -1.2786270   -1.9350955 
