33
Energy = -967.0392516681
N    -3.1775383    1.9036587   -0.4280550 
C    -2.4970172    1.0700224    0.5487740 
C    -3.2102765   -0.2713284    0.7380564 
C    -3.0833378   -1.2355665   -0.4310633 
O    -2.7850892   -2.4022885   -0.2633541 
N    -3.3353326   -0.6860007   -1.6355643 
C    -1.0393698    0.9471300    0.0955928 
O    -0.5396959    1.7956164   -0.6224035 
N    -0.3542783   -0.1062151    0.5717461 
C     1.0183952   -0.3524493    0.2048582 
C     1.9645801    0.6068932    0.9486513 
C     3.4510213    0.3713044    0.7583533 
C     3.9197522    0.4805266   -0.6639789 
O     3.2617922    0.8445243   -1.5992212 
O     5.2124743    0.1308963   -0.7803320 
C     1.3098628   -1.7913902    0.5541498 
O     0.7180160   -2.4211986    1.3877780 
O     2.3308762   -2.2886847   -0.1530359 
H    -3.9286728    2.4272831   -0.0026604 
H    -2.4975773    2.5517413   -0.8128752 
H    -2.4412749    1.5527826    1.5362874 
H    -2.8481266   -0.7958517    1.6225045 
H    -4.2711914   -0.0705591    0.9114493 
H    -3.1872250   -1.2476408   -2.4550199 
H    -3.4590637    0.3188321   -1.6947890 
H    -0.8110212   -0.8416844    1.0887273 
H     1.1518202   -0.2021895   -0.8677411 
H     1.7002297    1.6072953    0.6047814 
H     1.7318868    0.5474418    2.0143742 
H     3.7749790   -0.5973789    1.1431269 
H     4.0133233    1.1142104    1.3319783 
H     5.4441386    0.2383974   -1.7109785 
H     2.4630406   -3.1982300    0.1439832 
