40
Energy = -1175.616202757
N     3.1955668    1.2228426    1.5497320 
C     2.9544221    0.9880383    0.1497030 
C     3.9836461    0.0333416   -0.3707760 
C     5.1922830   -0.3665775    0.1368996 
N     5.7984431   -1.2495306   -0.7153261 
C     4.9736230   -1.3827058   -1.7221035 
N     3.8630123   -0.6255536   -1.5631217 
C     1.5654321    0.4920405   -0.2732112 
O     1.2585665    0.4149715   -1.4542110 
N     0.7173761    0.1511548    0.7121985 
C    -0.5496091   -0.4703726    0.4068316 
C    -1.5786266    0.5258370   -0.1416800 
C    -3.0056579    0.1003884    0.0603495 
C    -3.8371574   -0.1729568   -1.0190308 
C    -5.1573669   -0.5490210   -0.8220354 
C    -5.6662573   -0.6617683    0.4627784 
C    -4.8472705   -0.3897610    1.5490432 
C    -3.5303275   -0.0096301    1.3456833 
C    -0.2977398   -1.7008894   -0.4629983 
O     0.6261765   -2.4492838   -0.2958510 
O    -1.2381135   -1.8992581   -1.3848985 
H     2.5635418    1.8929540    1.9585150 
H     3.2287210    0.3719061    2.0928734 
H     3.0620563    1.9450082   -0.3773818 
H     5.6554050   -0.0484572    1.0565188 
H     5.1230863   -2.0160428   -2.5823517 
H     3.0508872   -0.5571119   -2.1566125 
H     1.0976423    0.0570168    1.6375360 
H    -0.9317755   -0.8747761    1.3486001 
H    -1.4081948    1.4647540    0.3909025 
H    -1.3728771    0.7139893   -1.1940870 
H    -3.4393674   -0.0969815   -2.0238905 
H    -5.7902274   -0.7568589   -1.6764046 
H    -6.6968656   -0.9564094    0.6178463 
H    -5.2371453   -0.4664953    2.5568424 
H    -2.9038823    0.2173218    2.2029404 
H    -1.0081488   -2.7155255   -1.8463502 
C     3.0175865   -2.7226074    1.3420323 
O     2.6392686   -1.9890048    2.1601810 
O     3.4069987   -3.4707128    0.5580909 
