25
Energy = -1366.823657592
N     2.0371328   -1.7407990    0.5630793 
C     2.0608866   -0.3028014    0.7773532 
C     2.7514747    0.3328986   -0.4266442 
S     2.7629269    2.1458892   -0.3237185 
C     0.6456042    0.2510032    0.9045468 
O     0.4145961    1.2679997    1.5295368 
N    -0.2914155   -0.4493666    0.2349571 
C    -1.6402548    0.0354169    0.1138688 
C    -1.7405941    1.0170252   -1.0582595 
S    -3.3858387    1.7023407   -1.3411469 
C    -2.5471630   -1.1545231   -0.1088984 
O    -2.3021038   -2.0325457   -0.8922537 
O    -3.6395910   -1.1258285    0.6529275 
H     1.7656198   -2.2283607    1.4066723 
H     2.9520067   -2.0808387    0.2990349 
H     2.5812702    0.0147170    1.6881228 
H     2.2439320    0.0089299   -1.3366158 
H     3.7825670   -0.0238378   -0.4563708 
H     3.6139486    2.3075459   -1.3485306 
H    -0.0059093   -1.2802295   -0.2635808 
H    -1.9073169    0.5464591    1.0384988 
H    -1.0150034    1.8138889   -0.8983748 
H    -1.4803096    0.4961843   -1.9813194 
H    -3.4788452    2.3691443   -0.1802968 
H    -4.1777202   -1.8901120    0.4085119 
