33
Energy = -763.7109512151
N     3.7030657   -0.6265194    0.9875714 
C     2.9220963    0.5497339    1.2851399 
C     3.3686408    1.6863590    0.3859650 
O     3.1355147    1.2783891   -0.9517094 
C     1.3945502    0.4534778    1.2002433 
O     0.6908431    1.3577053    1.6167187 
N     0.8983789   -0.6717943    0.6562600 
C    -0.5127579   -0.8510614    0.4502823 
C    -0.9829700   -0.1080449   -0.8119066 
C    -2.4845172   -0.0568500   -1.0722621 
C    -2.7375883    0.7102286   -2.3629893 
C    -3.2454338    0.5744263    0.0852952 
C    -0.7674926   -2.3325472    0.3408635 
O     0.0573047   -3.1408419    0.0041497 
O    -2.0304304   -2.6613688    0.6333798 
H     3.4094964   -1.4425714    1.5029269 
H     3.7123273   -0.8246551   -0.0030875 
H     3.1208609    0.8642547    2.3142866 
H     2.7920440    2.5807356    0.6372600 
H     4.4340285    1.8716243    0.5587347 
H     3.4320986    1.9689323   -1.5435779 
H     1.5173882   -1.3640619    0.2688646 
H    -1.0395834   -0.4526586    1.3183473 
H    -0.4675357   -0.5455885   -1.6726090 
H    -0.6072419    0.9130659   -0.7021821 
H    -2.8559653   -1.0777232   -1.2089143 
H    -2.2096003    0.2597370   -3.2064958 
H    -3.8022224    0.7319562   -2.6041357 
H    -2.3960710    1.7449710   -2.2698664 
H    -3.1896362   -0.0295034    0.9919370 
H    -4.3019483    0.6887034   -0.1656527 
H    -2.8451520    1.5654683    0.3158207 
H    -2.1123913   -3.6137785    0.4960422 
