23
Energy = -719.8736613419
N    -0.9893556   -1.2496136    1.0723270 
C    -1.0376945   -0.8436871   -0.3230106 
C    -1.5721701    0.5761564   -0.4513695 
C    -3.0010478    0.7253632   -0.0230622 
O    -3.6619689   -0.1081446    0.5411750 
O    -3.4838074    1.9365044   -0.3309819 
C     0.3490218   -0.8365328   -0.9584813 
O     0.4945042   -0.7760003   -2.1633260 
N     1.3655064   -0.8654778   -0.0703547 
C     2.7186138   -0.6755704   -0.4822792 
C     3.2537442    0.7363567   -0.3835936 
O     4.4036349    1.0164781   -0.5752245 
O     2.3182699    1.6426907   -0.0670863 
H    -1.8999163   -1.0930243    1.4870725 
H    -0.8144441   -2.2447026    1.1355258 
H    -1.6528723   -1.4985806   -0.9516066 
H    -0.9705455    1.2616767    0.1548887 
H    -1.4789870    0.9130497   -1.4851384 
H    -4.3939105    1.9659890   -0.0102062 
H     1.0944279   -0.8081171    0.9007799 
H     2.7944104   -0.9591768   -1.5345978 
H     3.4014692   -1.3148433    0.0792515 
H     2.7631175    2.4994066   -0.0568014 
