33
Energy = -1235.797673037
N     3.3197599   -1.8141352   -0.5673830 
C     2.4706593   -0.9671419    0.2353550 
C     3.1922593    0.3340361    0.5573915 
S     3.4562343    1.4140697   -0.8757472 
C     1.0830358   -0.7640250   -0.3965692 
O     0.7202034   -1.4409509   -1.3374995 
N     0.2865270    0.1580441    0.1964462 
C    -1.0207108    0.4793016   -0.3134129 
C    -2.1168463    0.2684762    0.7459897 
C    -2.1584927   -1.1931602    1.1612658 
C    -3.4781046    0.7328188    0.2505772 
C    -1.0136731    1.9182958   -0.7860261 
O    -0.5374012    2.8332843   -0.1647922 
O    -1.6123223    2.0807210   -1.9670579 
H     2.8189774   -2.6690829   -0.7767659 
H     3.4431350   -1.3694416   -1.4712971 
H     2.2962714   -1.4750308    1.1934892 
H     4.1557280    0.1005605    1.0070813 
H     2.6419956    0.9381070    1.2774074 
H     4.5352893    0.7803452   -1.3574578 
H     0.6503212    0.7507955    0.9233993 
H    -1.1983386   -0.1775499   -1.1652687 
H    -1.8368840    0.8766007    1.6145943 
H    -2.8840390   -1.3402289    1.9631154 
H    -2.4526244   -1.8244331    0.3192153 
H    -1.1869756   -1.5383067    1.5152712 
H    -3.4996206    1.8022167    0.0341539 
H    -3.7636005    0.2008911   -0.6603279 
H    -4.2397839    0.5344069    1.0060705 
H    -1.5761021    3.0231065   -2.1778237 
C     0.7804838    3.5188761    2.2187931 
O     0.9848609    2.3981105    2.4426990 
O     0.5948245    4.6412640    2.0362620 
