35
Energy = -876.9959404849
N    -1.7977078    2.4003914    1.1063960 
C    -1.1210635    1.1281707    1.2321313 
C    -2.0836233   -0.0625079    1.0839305 
C    -2.4369285   -0.5232972   -0.3300650 
C    -3.0867983    0.5577327   -1.1840516 
C    -3.3378928   -1.7476983   -0.2421946 
C     0.0517476    0.9714375    0.2635842 
O     0.1876040    1.6704706   -0.7242827 
N     0.9252072   -0.0149297    0.5721014 
C     1.9556222   -0.4246678   -0.3416311 
C     3.0893350    0.5947862   -0.4455791 
C     3.8632512    0.4734597   -1.7268192 
O     3.4424903    0.0226870   -2.7554680 
O     5.0980208    0.9855628   -1.6054686 
C     2.4409250   -1.7812129    0.1161401 
O     1.9371735   -2.4155661    1.0053065 
O     3.5018516   -2.2005309   -0.5722910 
H    -1.9878333    2.5865368    0.1299606 
H    -1.1784420    3.1432749    1.4042617 
H    -0.7163740    1.0797306    2.2483884 
H    -2.9980017    0.2110970    1.6184679 
H    -1.6582886   -0.9209137    1.6141130 
H    -1.5089606   -0.8293734   -0.8292147 
H    -3.4463635    0.1337562   -2.1240979 
H    -2.3812710    1.3491173   -1.4397155 
H    -3.9421249    1.0022996   -0.6686403 
H    -3.5628859   -2.1414966   -1.2353107 
H    -2.8735495   -2.5465685    0.3405138 
H    -4.2875574   -1.4937359    0.2373782 
H     0.7243745   -0.6594203    1.3208153 
H     1.5461993   -0.5448642   -1.3525110 
H     3.7618974    0.5582560    0.4112437 
H     2.6265438    1.5849936   -0.4653451 
H     5.5099006    0.9219021   -2.4762714 
H     3.7436225   -3.0686793   -0.2264751 
