41
Energy = -951.7324684474
N    -2.4536167   -1.6328340    1.6572434 
C    -2.3474167   -0.7044417    0.5401263 
C    -2.7692987    0.7265039    0.8750545 
C    -3.0925088    1.5946275   -0.3269417 
C    -3.7239981    2.9070734    0.0860100 
O    -4.4189840    3.0254044    1.0744886 
N    -3.4793429    3.9445853   -0.7519380 
C    -0.9411313   -0.7519792   -0.0584360 
O    -0.5382572    0.1054347   -0.8369697 
N    -0.2064496   -1.8050804    0.3161770 
C     1.1278584   -2.0084509   -0.1738392 
C     2.1859023   -1.2580912    0.6651652 
C     3.4308833   -0.8406464   -0.1082199 
C     3.1998020    0.2211986   -1.1813735 
C     3.0373665    1.6479392   -0.6782311 
N     1.8593702    1.8086239    0.1599778 
C     1.4044903   -3.4886817   -0.1685386 
O     0.7778260   -4.3051664    0.4516432 
O     2.4733575   -3.8045403   -0.9122698 
H    -3.4212841   -1.8610574    1.8360532 
H    -2.0920662   -1.2072055    2.5023849 
H    -3.0035879   -1.0822711   -0.2535269 
H    -3.6586391    0.6805044    1.5069337 
H    -1.9863339    1.2021376    1.4747718 
H    -2.2051974    1.7510885   -0.9390357 
H    -3.8255048    1.0831488   -0.9626604 
H    -3.9002768    4.8343569   -0.5532221 
H    -2.8798335    3.8496777   -1.5489208 
H    -0.6367587   -2.4886093    0.9246635 
H     1.1700392   -1.6436796   -1.2022949 
H     2.4636050   -1.8777580    1.5234344 
H     1.7036546   -0.3630810    1.0558265 
H     4.1625326   -0.4587583    0.6108829 
H     3.8867553   -1.7213107   -0.5676710 
H     2.3260875   -0.0340321   -1.7907183 
H     4.0517270    0.2129296   -1.8673247 
H     3.9191726    1.9163168   -0.0853744 
H     3.0389943    2.3130119   -1.5560550 
H     1.7217536    2.7798213    0.4026377 
H     1.0287671    1.4885644   -0.3279135 
H     2.6104413   -4.7549736   -0.8122994 
