30
Energy = -927.7743231451
N     2.2082205   -0.3100924   -1.3900296 
C     1.2671771   -0.2939241   -0.2847299 
C     1.6794978    0.7565312    0.7569898 
C     2.8638293    0.3292944    1.6016679 
O     2.8095511    0.3123956    2.8179048 
N     3.9592999   -0.0150035    0.8952390 
C    -0.1547902    0.0270397   -0.7414293 
O    -0.3714267    0.6377022   -1.7732106 
N    -1.1261731   -0.3749710    0.1007165 
C    -2.4950966    0.0258107   -0.0796734 
C    -3.2781006   -0.9311160   -0.9753632 
C    -3.1286959    0.1466139    1.2858318 
O    -2.6015754   -0.1708628    2.3187714 
O    -4.3678466    0.6404943    1.2184805 
H     2.1018382   -1.1648351   -1.9213051 
H     1.9498894    0.4409503   -2.0238079 
H     1.2702973   -1.2755591    0.1960879 
H     0.8628110    0.9632428    1.4454438 
H     1.9159903    1.6873628    0.2333644 
H     3.8618247   -0.1427602   -0.1048483 
H     4.7431578   -0.3975193    1.3936868 
H    -0.8840552   -0.8049769    0.9817494 
H    -2.5041933    1.0164054   -0.5443257 
H    -2.7882274   -0.9766226   -1.9469617 
H    -4.3016167   -0.5842434   -1.1116955 
H    -3.2969696   -1.9328199   -0.5430968 
H    -4.7095010    0.6758387    2.1207020 
C     0.3140544   -0.9769175    3.7126653 
O     0.3222134   -1.5678066    2.7130171 
O     0.2776895   -0.4132044    4.7166513 
