43
Energy = -861.6933505998
N     1.7652190   -0.4227473    2.3176537 
C     1.3759734   -0.0218160    0.9816551 
C     2.2125421   -0.7659251   -0.0614129 
C     3.6894364   -0.4221225    0.0055114 
C     4.5263428   -1.2229766   -0.9767793 
C     6.0169059   -0.9030134   -0.9203778 
N     6.4075337    0.4491609   -1.2830195 
C    -0.0992113   -0.2993984    0.7018159 
O    -0.6835214   -1.2372501    1.2166771 
N    -0.6949898    0.5322909   -0.1778313 
C    -2.0466557    0.3220600   -0.6268607 
C    -3.0569112    0.9030503    0.3765370 
C    -4.5328516    0.5989753    0.1418278 
C    -4.8085756   -0.8973223    0.0907094 
C    -5.3544528    1.2590746    1.2408038 
C    -2.1729863    0.9691054   -1.9826808 
O    -1.4422160    1.8320083   -2.3938161 
O    -3.2064327    0.4957477   -2.6852434 
H     1.3449754   -1.3279296    2.5034184 
H     1.3674339    0.2093492    3.0003463 
H     1.5647350    1.0523098    0.8745675 
H     2.0695960   -1.8405043    0.0968724 
H     1.8242360   -0.5464935   -1.0615682 
H     4.0444152   -0.5925234    1.0254974 
H     3.8100040    0.6496641   -0.1915681 
H     4.3895165   -2.2920898   -0.7769445 
H     4.1628311   -1.0543711   -1.9984656 
H     6.5561962   -1.5926504   -1.5759783 
H     6.3874174   -1.0955007    0.0916092 
H     6.0733059    0.6790578   -2.2103847 
H     6.0008651    1.1239003   -0.6494339 
H    -0.1849292    1.2845194   -0.6116790 
H    -2.2175789   -0.7517171   -0.7221246 
H    -2.9008227    1.9853984    0.4265175 
H    -2.7642991    0.4928241    1.3472605 
H    -4.8371070    1.0354763   -0.8146852 
H    -5.8814302   -1.0879679    0.0225566 
H    -4.3384481   -1.3732815   -0.7709290 
H    -4.4361155   -1.3904215    0.9927578 
H    -6.4224204    1.0976526    1.0819164 
H    -5.0969206    0.8427104    2.2187155 
H    -5.1786427    2.3364676    1.2802744 
H    -3.2322622    0.9872189   -3.5162181 
