34
Energy = -1113.355962581
N     1.3493768    1.0048202   -1.1744813 
C     1.5132765   -0.3077563   -0.5731069 
C     2.7587820   -0.4933018    0.2787908 
C     4.0245298   -0.4120677   -0.5471994 
O     4.0270967   -0.1367394   -1.7317746 
N     5.1669923   -0.6510793    0.1380926 
C     0.2803789   -0.7238301    0.2178338 
O     0.2658051   -1.6996378    0.9463781 
N    -0.8020514    0.0545627    0.0240756 
C    -2.0593180   -0.2848069    0.6338277 
C    -3.0906590    0.7537582    0.3741771 
C    -3.7896232    1.5819382    1.2092184 
N    -4.6405912    2.3763505    0.4959837 
C    -4.4644952    2.0366208   -0.7561513 
N    -3.5397018    1.0579342   -0.8870408 
C    -2.5608869   -1.6236223    0.0950075 
O    -2.4406511   -1.9821183   -1.0456454 
O    -3.2132710   -2.3156326    1.0247039 
H     2.0563237    1.1097341   -1.8916729 
H     1.5215174    1.7321146   -0.4897141 
H     1.5677797   -1.0256091   -1.3971651 
H     2.7050218   -1.4584016    0.7890016 
H     2.7992193    0.2705576    1.0635171 
H     5.1541580   -0.9779180    1.0856979 
H     6.0350248   -0.6563733   -0.3673257 
H    -0.7112325    0.8242318   -0.6216364 
H    -1.9349030   -0.3913631    1.7126138 
H    -3.7194888    1.6406468    2.2841120 
H    -4.9755809    2.4645803   -1.6044639 
H    -3.2311257    0.6244277   -1.7439044 
H    -3.5406398   -3.1216837    0.6063902 
C    -1.0828328   -0.7730386   -3.2516574 
O    -1.9101690    0.0393891   -3.2954705 
O    -0.2455917   -1.5651251   -3.2464054 
