33
Energy = -1235.787349986
N    -2.7276241   -1.1572500    0.6466764 
C    -2.4303868    0.1863526    0.1871869 
C    -2.6370416    1.2897927    1.2228021 
C    -4.0469610    1.3720878    1.7209592 
O    -4.3795729    1.4168144    2.8734084 
O    -4.9432630    1.3943946    0.7141586 
C    -1.0118689    0.2987863   -0.3732820 
O    -0.4993190    1.3825245   -0.6001036 
N    -0.4102269   -0.8748514   -0.6154753 
C     0.8944668   -0.9368981   -1.2105475 
C     1.9968020   -0.6073866   -0.1857250 
C     3.3397005   -0.2554612   -0.7970009 
S     4.5592692    0.2841496    0.4148058 
C     3.8896316    1.8910186    0.8617931 
C     1.0669494   -2.3184469   -1.7906692 
O     0.3780692   -3.2646733   -1.5208736 
O     2.1029592   -2.3874425   -2.6352152 
H    -3.7184826   -1.3470268    0.6094101 
H    -2.4244124   -1.2974727    1.6019725 
H    -3.0836462    0.3924983   -0.6653339 
H    -2.3624953    2.2464190    0.7716195 
H    -1.9919310    1.1353207    2.0883889 
H    -5.8135804    1.4733450    1.1235202 
H    -0.9241256   -1.7264587   -0.4348074 
H     0.9537715   -0.2025483   -2.0199328 
H     1.6195892    0.2508844    0.3707628 
H     2.1039471   -1.4334522    0.5214432 
H     3.7913016   -1.1141059   -1.2937136 
H     3.2243433    0.5272606   -1.5522363 
H     4.5986610    2.3431918    1.5545606 
H     3.7988833    2.5316886   -0.0161216 
H     2.9231471    1.8116132    1.3585803 
H     2.1638455   -3.3046683   -2.9310105 
