43
Energy = -1011.612248047
N    -0.5723627   -1.5166157    0.2826454 
C    -0.4659763   -0.1305618   -0.1390355 
C    -1.1894093    0.8771778    0.7645094 
C    -2.6583764    0.6533687    0.7888229 
C    -3.5729827    0.9089118   -0.2877615 
C    -3.4290274    1.4510599   -1.5681896 
C    -4.5440944    1.5692001   -2.3725956 
C    -5.8070434    1.1582470   -1.9240831 
C    -5.9822022    0.6241442   -0.6625220 
C    -4.8564766    0.5052109    0.1453505 
N    -4.7207047    0.0264851    1.4207851 
C    -3.4032502    0.1183032    1.8008071 
C     0.9878630    0.2970697   -0.3327144 
O     1.2905277    1.4645222   -0.5039866 
N     1.8726836   -0.7188113   -0.3146664 
C     3.2717760   -0.5303932   -0.5824852 
C     4.1377234   -0.6994741    0.6821272 
C     5.6223212   -0.5916706    0.3678318 
C     3.7316269    0.3227469    1.7311890 
C     3.6836235   -1.5393032   -1.6318887 
O     3.3437380   -2.6919147   -1.6281274 
O     4.4894928   -1.0196074   -2.5659577 
H    -1.4893669   -1.8774466    0.0590301 
H    -0.4753629   -1.5851094    1.2889072 
H    -0.9074841   -0.0652750   -1.1389787 
H    -0.9478325    1.8814009    0.4108824 
H    -0.7780558    0.7950298    1.7762357 
H    -2.4593346    1.7829340   -1.9207544 
H    -4.4468757    1.9891070   -3.3660428 
H    -6.6631677    1.2646493   -2.5788002 
H    -6.9613272    0.3126356   -0.3183444 
H    -5.4682960   -0.3036782    2.0001355 
H    -3.0919937   -0.1996326    2.7838156 
H     1.4905373   -1.6525444   -0.2480027 
H     3.3975334    0.4812109   -0.9723738 
H     3.9330580   -1.7051653    1.0672801 
H     5.8542249    0.3729911   -0.0906950 
H     5.9625079   -1.3745669   -0.3116615 
H     6.2068151   -0.6739916    1.2855520 
H     2.6719591    0.2500813    1.9755023 
H     4.3031658    0.1700163    2.6485745 
H     3.9206380    1.3382779    1.3761229 
H     4.7190878   -1.7386197   -3.1689394 
