43
Energy = -994.5904228813
N     3.0130101    1.4010151    0.9892441 
C     2.5697345    0.7647220   -0.2306577 
C     3.0563056   -0.6814960   -0.2825098 
C     4.5688375   -0.8608763   -0.1996130 
C     5.2889700   -0.1572237   -1.3396017 
C     4.9055973   -2.3449354   -0.1821595 
C     1.0701062    0.7627994   -0.5280330 
O     0.6426800    0.4383108   -1.6231748 
N     0.2581400    1.1225411    0.4866573 
C    -1.1685321    1.1354888    0.3356867 
C    -1.7578401   -0.2896314    0.4561031 
C    -3.1935948   -0.4031110    0.0484069 
C    -4.2074413   -0.5773435    0.9839039 
C    -5.5356521   -0.6635321    0.6048324 
C    -5.8737306   -0.5719444   -0.7386935 
O    -7.1871186   -0.6593953   -1.0680374 
C    -4.8737631   -0.4018699   -1.6894089 
C    -3.5496788   -0.3210848   -1.2936297 
C    -1.7314751    2.0419949    1.4002587 
O    -1.1625520    2.3065301    2.4284970 
O    -2.9446346    2.4987044    1.0950852 
H     2.7728267    0.8759659    1.8185736 
H     2.6962068    2.3542754    1.0857902 
H     3.0081697    1.3056182   -1.0745802 
H     2.6813183   -1.1253880   -1.2084381 
H     2.5838089   -1.2328637    0.5412163 
H     4.9116382   -0.4161793    0.7398504 
H     6.3626057   -0.3520976   -1.2972029 
H     4.9235615   -0.5112311   -2.3081686 
H     5.1518411    0.9244750   -1.3005139 
H     4.4090781   -2.8579139    0.6449753 
H     4.5859362   -2.8264271   -1.1109597 
H     5.9809436   -2.5043000   -0.0788832 
H     0.6339630    1.4073252    1.3756914 
H    -1.4215007    1.5265872   -0.6516347 
H    -1.6158743   -0.6391087    1.4817097 
H    -1.1343304   -0.9079996   -0.1922560 
H    -3.9536286   -0.6502329    2.0360598 
H    -6.3208999   -0.8039438    1.3365977 
H    -7.2800749   -0.5875930   -2.0196491 
H    -5.1317250   -0.3384207   -2.7418817 
H    -2.7759662   -0.1961509   -2.0438481 
H    -3.2550657    3.0162407    1.8489954 
