38
Energy = -1062.330641050
N    -2.2866375    1.3153394   -1.6757402
C    -1.9132402    0.8847533   -0.3418016
C    -3.1257918    0.3904810    0.3906757
C    -3.3508871   -0.4358190    1.4621500
N    -4.6905767   -0.5023624    1.7383382
C    -5.2694882    0.2643728    0.8504245
N    -4.3641190    0.8301632    0.0184801
C    -0.8394994   -0.2086629   -0.3695674
O    -0.6212462   -0.8524862   -1.3746071
N    -0.1725929   -0.3827618    0.7927153
C     0.7950917   -1.4274830    0.9594782
C     2.2453703   -0.8949564    0.9585873
C     2.5556393   -0.1216264   -0.2856449
C     2.4570562    1.2628358   -0.3104844
C     2.6895811    1.9806816   -1.4740035
C     3.0287424    1.3113295   -2.6423609
O     3.2713018    1.9554992   -3.8109614
C     3.1342319   -0.0746747   -2.6350085
C     2.8972976   -0.7733959   -1.4676758
C     0.5227505   -2.1452852    2.2586276
O    -0.1771742   -1.7203261    3.1382679
O     1.1918968   -3.2990574    2.3430724
H    -2.2675746    0.4955358   -2.2759984
H    -1.5736425    1.9330797   -2.0406353
H    -1.5013143    1.7519031    0.1884347
H    -2.6312230   -0.9843866    2.0497249
H    -6.3303679    0.4392050    0.7609768
H    -4.5103725    1.4196553   -0.7841673
H    -0.4996139    0.0767977    1.6273792
H     0.6748567   -2.1228925    0.1265707
H     2.3814138   -0.2588786    1.8376481
H     2.9194075   -1.7469384    1.0654478
H     2.1954377    1.7962861    0.5966066
H     2.6148873    3.0636413   -1.4703753
H     3.1814001    2.9006844   -3.6775355
H     3.3988878   -0.5862035   -3.5512871
H     2.9729474   -1.8552040   -1.4780172
H     0.9969642   -3.6791429    3.2090657
