39
Energy = -880.1243493782
N     2.7710496    0.7814209    1.6633832 
C     2.8632401    0.2879891    0.2959712 
C     3.7205862   -0.9708402    0.0641395 
C     4.9680837   -0.9646683    0.9362824 
C     4.1221309   -1.0970620   -1.4002587 
C     1.4433896    0.1201178   -0.2625424 
O     1.1552794   -0.6725136   -1.1432961 
N     0.5392391    0.9524860    0.2879637 
C    -0.8329724    0.9405246   -0.1277339 
C    -1.6092096   -0.2211347    0.5336157 
C    -3.0138106   -0.3744962    0.0380730 
C    -3.2566816   -0.9200596   -1.2197858 
C    -4.5500173   -1.0384930   -1.7015252 
C    -5.6229367   -0.6149012   -0.9294968 
C    -5.3926490   -0.0749479    0.3264039 
C    -4.0958759    0.0441454    0.8042191 
C    -1.4542756    2.2602941    0.2581060 
O    -1.1542927    2.8855086    1.2404985 
O    -2.4051862    2.6431329   -0.5957515 
H     2.5131187    0.0350404    2.2973805 
H     3.6601620    1.1430351    1.9762210 
H     3.3094289    1.1001974   -0.2933665 
H     3.1100571   -1.8415915    0.3298290 
H     5.5834185   -0.0817288    0.7344469 
H     5.5801079   -1.8418044    0.7187973 
H     4.7406627   -0.9804006    2.0032216 
H     3.2495475   -1.1226854   -2.0484160 
H     4.7521825   -0.2505996   -1.6925127 
H     4.7026080   -2.0079483   -1.5609744 
H     0.8268388    1.5197491    1.0727494 
H    -0.8776102    0.8138634   -1.2101099 
H    -1.5948802   -0.0668522    1.6149479 
H    -1.0302099   -1.1196310    0.3129085 
H    -2.4200663   -1.2571330   -1.8226474 
H    -4.7224665   -1.4670608   -2.6814405 
H    -6.6346609   -0.7103821   -1.3043204 
H    -6.2248039    0.2523417    0.9381568 
H    -3.9191167    0.4669331    1.7875514 
H    -2.7992091    3.4501546   -0.2406882 
