46
Energy = -1220.909963541
N    -0.0100914   -2.6261818   -1.7383819 
C    -0.8402054   -1.5250054   -1.2980648 
C    -2.1834438   -1.9509964   -0.6682521 
C    -3.0081826   -0.7868070   -0.2090792 
C    -3.8659800   -0.1283326   -1.0857689 
C    -4.5729737    0.9947057   -0.6822830 
C    -4.4282967    1.4805115    0.6087949 
C    -3.5833923    0.8280993    1.4940900 
C    -2.8813465   -0.2961794    1.0882068 
C    -0.0512101   -0.7601153   -0.2472282 
O     0.4188218   -1.3341515    0.7180744 
N     0.0498732    0.5694507   -0.4469760 
C     0.6542716    1.4343285    0.5211249 
C     2.0719547    1.8922286    0.1075404 
C     3.0098341    0.7327947   -0.0316008 
C     3.7404691    0.2830867    1.0631966 
C     4.5637214   -0.8255344    0.9575407 
C     4.6631495   -1.5045314   -0.2481969 
C     3.9405504   -1.0636194   -1.3458934 
C     3.1236186    0.0508733   -1.2378032 
C    -0.2084354    2.6573632    0.7096222 
O    -0.9825816    3.0884917   -0.1029457 
O     0.0284219    3.2608786    1.8789037 
H     0.3986830   -3.0685598   -0.9231214 
H    -0.5619274   -3.3190999   -2.2262307 
H    -1.0478688   -0.8692708   -2.1494626 
H    -2.7318105   -2.5320731   -1.4150962 
H    -1.9553408   -2.6128536    0.1702694 
H    -3.9825685   -0.5040883   -2.0970219 
H    -5.2393708    1.4928040   -1.3763287 
H    -4.9746925    2.3611665    0.9224828 
H    -3.4709200    1.1944170    2.5077279 
H    -2.2146145   -0.7996407    1.7795383 
H    -0.4351801    0.9926144   -1.2219455 
H     0.7232576    0.8836201    1.4605107 
H     1.9927562    2.4348715   -0.8382551 
H     2.4391131    2.5910430    0.8617667 
H     3.6574788    0.8044253    2.0109051 
H     5.1259514   -1.1635727    1.8195459 
H     5.3018185   -2.3754981   -0.3308160 
H     4.0064944   -1.5909233   -2.2894801 
H     2.5565430    0.3875011   -2.0978139 
H    -0.5142682    4.0592967    1.8999565 
C    -2.3374636    2.7283431   -2.5881233 
O    -1.5992614    1.8734406   -2.8518845 
O    -3.0829571    3.5804529   -2.3687773 
