36
Energy = -765.8865668056
N    -0.7185449   -1.5555589   -0.9609855 
C    -0.9177597   -0.1236022   -0.8050613 
C    -1.6583429    0.1986223    0.4910143 
C    -3.0521093   -0.4136923    0.6121548 
C    -3.6615197   -0.0338504    1.9541499 
C    -3.9688622   -0.0001300   -0.5299459 
C     0.3920053    0.6508125   -0.8408344 
O     0.4402518    1.7294329   -1.4128749 
N     1.4915732    0.1568629   -0.2275224 
C     2.7087715    0.9359050   -0.3269486 
C     3.7306116    0.1368287    0.4931506 
C     2.8584756   -0.6485984    1.4641264 
C     1.6604508   -1.0247954    0.6075634 
C     3.1541734    1.0726757   -1.7673598 
O     3.0046271    0.2406887   -2.6179681 
O     3.8197384    2.2180796   -1.9645294 
H    -0.2689620   -1.7508782   -1.8464727 
H    -1.6107812   -2.0305469   -0.9729400 
H    -1.4796537    0.3245771   -1.6326966 
H    -1.0573416   -0.1291258    1.3446794 
H    -1.7432736    1.2879997    0.5603322 
H    -2.9515063   -1.5060802    0.5987290 
H    -3.7923175    1.0497300    2.0236341 
H    -3.0235645   -0.3460347    2.7839467 
H    -4.6412786   -0.4965386    2.0893094 
H    -4.0668087    1.0882679   -0.5701073 
H    -4.9678837   -0.4199285   -0.3960940 
H    -3.5990948   -0.3331836   -1.5016191 
H     2.5544338    1.9384319    0.0773583 
H     4.2678996   -0.5531799   -0.1616742 
H     4.4588589    0.7860566    0.9758752 
H     2.5401252   -0.0087143    2.2909960 
H     3.3638587   -1.5191090    1.8820915 
H     0.7624308   -1.2374880    1.1792968 
H     1.8729007   -1.9053965   -0.0045336 
H     4.0982187    2.2215604   -2.8884401 
