24
Energy = -645.8683532308
N     2.1781851   -1.3884827   -0.1257325 
C     2.2174509   -0.0883687    0.5303520 
C     2.9585088    0.9155775   -0.3380624 
C     0.8124315    0.4473307    0.7915933 
O     0.6151028    1.3581038    1.5712733 
N    -0.1540430   -0.1498762    0.0613738 
C    -1.5256857    0.2426927    0.1505122 
C    -2.0185793    0.9109625   -1.1382244 
O    -3.2787808    1.4976444   -1.0034540 
C    -2.4399640   -0.8947518    0.5495731 
O    -3.6096179   -0.9538260    0.2594515 
O    -1.8388876   -1.8387715    1.2778904 
H     2.0441116   -2.1342162    0.5437188 
H     3.0437241   -1.5703172   -0.6140642 
H     2.6974048   -0.1168819    1.5154208 
H     4.0059819    0.6265388   -0.4489287 
H     2.9193258    1.9044103    0.1162309 
H     2.5061583    0.9664583   -1.3308766 
H     0.1531429   -0.9109448   -0.5276100 
H    -1.5829698    0.9835169    0.9578666 
H    -1.3106484    1.7035692   -1.3836459 
H    -1.9936502    0.1761266   -1.9567323 
H    -3.8786666    0.7978720   -0.7215991 
H    -2.5200353   -2.4841666    1.5070733 
