27
Energy = -905.4679159896
N     2.8680354    1.0236073    0.8743073 
C     3.0223582   -0.0378632   -0.1066565 
C     1.7058308   -0.5207092   -0.6847028 
O     1.6543737   -1.2578294   -1.6506572 
N     0.6020207   -0.0914099   -0.0395953 
C    -0.6922251   -0.5707174   -0.4487171 
C    -1.7796036    0.0003701    0.3889944 
C    -2.6345577   -0.5708419    1.2920500 
N    -3.4691936    0.3691115    1.8247330 
C    -3.1300839    1.4972969    1.2530569 
N    -2.1132286    1.3317821    0.3766217 
C    -0.9415237   -0.1929168   -1.9069266 
O    -0.6588146    0.8729440   -2.3868367 
O    -1.5911437   -1.1498173   -2.5609276 
H     2.9938464    1.9288848    0.4449148 
H     3.5471260    0.9438549    1.6157296 
H     3.6563549    0.2216286   -0.9589551 
H     3.4784326   -0.9126305    0.3630244 
H     0.7281661    0.4624809    0.7936539 
H    -0.7376461   -1.6597542   -0.3805175 
H    -2.6862673   -1.6092679    1.5799176 
H    -3.5845074    2.4587978    1.4349482 
H    -1.6863530    2.0400533   -0.2002017 
H    -1.7510160   -0.8280087   -3.4568305 
C     0.7851234    3.0549549   -1.3471655 
O    -0.2187454    3.4398785   -0.9150842 
O     1.8123099    2.7168228   -1.7518741 
