36
Energy = -990.0398889041
N    -0.6590855    2.2753833   -1.3112126 
C    -0.3114323    2.2304466    0.0870265 
C    -1.5155242    1.7676756    0.9230653 
C    -1.9681594    0.3821871    0.5656690 
C    -2.9318705    0.1745864   -0.4187646 
C    -3.3130158   -1.1086656   -0.7837714 
C    -2.7367859   -2.2078796   -0.1652900 
C    -1.7827458   -2.0141543    0.8236381 
C    -1.4038764   -0.7310091    1.1855855 
C     0.9139053    1.4063210    0.4985346 
O     1.3239179    1.4137985    1.6469671 
N     1.5053768    0.6909255   -0.4781823 
C     2.6406905   -0.1519648   -0.2256264 
C     2.2592979   -1.4863827    0.4120396 
C     3.3638202   -0.3554656   -1.5335649 
O     2.9646740    0.0241415   -2.6040962 
O     4.5061370   -1.0264828   -1.3766059 
H     0.0737465    2.6468718   -1.8965859 
H    -0.9823814    1.3863942   -1.6660552 
H    -0.0740597    3.2485923    0.4103197 
H    -1.2268576    1.8114594    1.9732318 
H    -2.3233088    2.4814715    0.7555906 
H    -3.3896780    1.0324323   -0.8989151 
H    -4.0670524   -1.2491884   -1.5490208 
H    -3.0367983   -3.2103034   -0.4453035 
H    -1.3359942   -2.8671643    1.3206676 
H    -0.6628022   -0.5810550    1.9624552 
H     1.1347358    0.7131348   -1.4137612 
H     3.3174201    0.3751761    0.4533510 
H     1.5688496   -2.0356559   -0.2298172 
H     1.7691053   -1.2866026    1.3630287 
H     3.1451221   -2.0944860    0.5905802 
H     4.9030360   -1.1216658   -2.2512451 
C     3.2643559    3.0846091   -1.7001964 
O     2.3092707    3.5238763   -2.1843203 
O     4.2251292    2.6627081   -1.2154664 
