39
Energy = -896.4200009921
N     1.7150706    0.4823788    1.2170491 
C     1.7497286    0.6619486   -0.2261937 
C     2.5532936   -0.3755055   -1.0081140 
C     3.9928111   -0.5096415   -0.5519725 
C     4.8209364    0.7438512   -0.7577401 
O     4.4481033    1.6887834   -1.4194821 
N     6.0272111    0.7350719   -0.1310228 
C     0.3392309    0.7474284   -0.8081373 
O     0.1294318    0.6632397   -2.0060706 
N    -0.6330995    0.9434179    0.1006088 
C    -1.9945689    1.1585030   -0.2941203 
C    -2.7089514   -0.1232652   -0.7533684 
C    -2.6344216   -1.3189347    0.1897212 
C    -3.1609347   -2.5551375   -0.5260941 
C    -3.3813572   -1.1032000    1.4988740 
C    -2.6990956    1.8927610    0.8191368 
O    -2.2052936    2.2014056    1.8709010 
O    -3.9625356    2.1952776    0.4944615 
H     1.6318812   -0.4939540    1.4694577 
H     2.5439571    0.8498960    1.6593584 
H     2.1955744    1.6410026   -0.4241707 
H     2.5146388   -0.1041226   -2.0622058 
H     2.0620547   -1.3500478   -0.9145760 
H     4.4808018   -1.3147567   -1.1111382 
H     4.0490881   -0.8016052    0.5019585 
H     6.3802187   -0.0896284    0.3165552 
H     6.6628391    1.4893053   -0.3217298 
H    -0.3571421    1.0913888    1.0611713 
H    -2.0056302    1.8356960   -1.1570991 
H    -2.2430934   -0.3943028   -1.7024786 
H    -3.7532261    0.1222008   -0.9650891 
H    -1.5775937   -1.4894086    0.4237383 
H    -4.2158740   -2.4315445   -0.7878208 
H    -2.6092469   -2.7453101   -1.4490258 
H    -3.0792649   -3.4414661    0.1067642 
H    -4.4299209   -0.8560148    1.3097020 
H    -2.9479658   -0.3032906    2.1005226 
H    -3.3605129   -2.0104798    2.1065985 
H    -4.3367424    2.6679597    1.2477710 
