41
Energy = -1179.674469718
N     1.1541383   -2.5963614   -0.0005348 
C     0.5987740   -1.2648102   -0.0890128 
C     1.5099957   -0.3535898   -0.9328351 
C     2.7554872    0.0727279   -0.2164259 
C     2.8780581    1.3692939    0.2678511 
C     4.0096450    1.7836718    0.9547995 
C     5.0504373    0.8907968    1.1691008 
O     6.1860048    1.2343533    1.8298736 
C     4.9471111   -0.4104160    0.6916848 
C     3.8126952   -0.8082400    0.0087023 
C    -0.7848999   -1.2547501   -0.7291974 
O    -1.0858816   -2.0412912   -1.6065349 
N    -1.6193606   -0.2842505   -0.2848295 
C    -2.9076477   -0.0566707   -0.8662279 
C    -4.0692651   -0.3380816    0.0935520 
O    -3.9729941   -1.7111403    0.4120331 
C    -4.0327267    0.5265610    1.3379179 
C    -3.0684046    1.3182130   -1.4809293 
O    -4.1144336    1.7591760   -1.8693115 
O    -1.9172866    2.0030363   -1.5583461 
H     0.6885862   -3.1223536    0.7277434 
H     0.9446621   -3.0782679   -0.8691333 
H     0.5350749   -0.8456765    0.9201256 
H     0.9485014    0.5351216   -1.2334099 
H     1.7494253   -0.8975703   -1.8508505 
H     2.0752153    2.0796406    0.0990064 
H     4.0847565    2.8041817    1.3173814 
H     6.1302960    2.1537052    2.0959709 
H     5.7664086   -1.0973422    0.8620445 
H     3.7316632   -1.8272459   -0.3462660 
H    -1.2721758    0.3581517    0.4044041 
H    -2.9938440   -0.7708048   -1.6920068 
H    -4.9868369   -0.1336541   -0.4672411 
H    -4.6444465   -1.9238965    1.0612111 
H    -3.1250780    0.3387097    1.9148730 
H    -4.8870904    0.3027936    1.9804864 
H    -4.0888526    1.5870917    1.0842614 
H    -2.1285905    2.8399121   -1.9913581 
C    -3.4038246   -3.7340581   -1.6504909 
O    -2.9321151   -4.4338523   -0.8604055 
O    -3.9055953   -3.0725879   -2.4570623 
