41
Energy = -955.5789537428
N     2.5410907   -1.9976031   -0.0216569 
C     2.4279067   -0.7246153    0.6810882 
C     3.0600721    0.3956599   -0.1662696 
C     2.2978076    0.6587450   -1.4573572 
C     3.2461376    1.6744313    0.6344933 
C     0.9705566   -0.4095324    1.0022005 
O     0.6597204    0.3938090    1.8659833 
N     0.0773329   -1.0738822    0.2497404 
C    -1.3371038   -0.9078455    0.4079269 
C    -1.8616966    0.3087710   -0.3944916 
C    -1.7653000    0.0729171   -1.8928218 
C    -3.2575596    0.7744330    0.0073599 
C    -3.4236109    1.0833181    1.4860405 
C    -1.9969874   -2.2011788    0.0009290 
O    -1.4645654   -3.0803580   -0.6245623 
O    -3.2718469   -2.2719310    0.4001754 
H     3.4711218   -2.1020414   -0.4051954 
H     2.3884020   -2.7759858    0.6062080 
H     2.9372042   -0.7248691    1.6526092 
H     4.0577406    0.0205279   -0.4324322 
H     1.3318097    1.1245509   -1.2485377 
H     2.1159858   -0.2586847   -2.0184173 
H     2.8605579    1.3428555   -2.0950200 
H     2.2852927    2.0713140    0.9636305 
H     3.8527229    1.5029728    1.5259256 
H     3.7441003    2.4310375    0.0247960 
H     0.4313535   -1.7256419   -0.4318957 
H    -1.5391582   -0.7280883    1.4658482 
H    -1.1624812    1.1044576   -0.1162149 
H    -0.7690481   -0.2562908   -2.1907937 
H    -2.4800505   -0.6864384   -2.2223683 
H    -1.9914468    0.9918843   -2.4362579 
H    -3.4665171    1.6770310   -0.5755067 
H    -4.0006773    0.0360226   -0.3050463 
H    -4.3735319    1.5870163    1.6722088 
H    -3.4171730    0.1771622    2.0944349 
H    -2.6221653    1.7316689    1.8477078 
H    -3.6199694   -3.1124771    0.0766223 
C     1.0572593   -3.6258081   -2.2501772 
O     1.3512838   -4.5757689   -1.6600404 
O     0.7730086   -2.6869820   -2.8643428 
