38
Energy = -916.2954249728
N     1.5867311   -1.3374183    1.6398804 
C     1.9027959   -0.0736833    1.0146754 
C     2.8596384   -0.2575725   -0.1750048 
C     4.2111367   -0.7759329    0.2872723 
C     2.2616656   -1.1563625   -1.2489387 
C     0.7346293    0.8140722    0.5762548 
O     0.9334588    1.9466129    0.1703962 
N    -0.4959311    0.2657270    0.6608537 
C    -1.6967631    1.0329697    0.4771303 
C    -2.4034420    0.7680115   -0.8699987 
C    -2.8203881   -0.6876806   -1.0115097 
C    -1.5185527    1.2061484   -2.0245651 
C    -2.6229452    0.7295612    1.6304662 
O    -2.4556828   -0.1510415    2.4333276 
O    -3.6848258    1.5406453    1.6508917 
H     1.0768427   -1.2423230    2.5051044 
H     1.1057540   -1.9799211    1.0281980 
H     2.4318310    0.5356551    1.7545496 
H     2.9884535    0.7415397   -0.5982924 
H     4.6746131   -0.0886512    0.9983703 
H     4.1077036   -1.7457282    0.7767209 
H     4.8898430   -0.8897276   -0.5604450 
H     2.1689181   -2.1891924   -0.9016628 
H     2.9056911   -1.1748948   -2.1295719 
H     1.2755984   -0.8114364   -1.5688097 
H    -0.5882182   -0.5980115    1.1701399 
H    -1.4283032    2.0920093    0.5138377 
H    -3.3007866    1.3930713   -0.8636878 
H    -1.9458523   -1.3429114   -1.0108377 
H    -3.4841435   -1.0103840   -0.2060116 
H    -3.3453050   -0.8417062   -1.9554234 
H    -1.2547157    2.2605570   -1.9444691 
H    -2.0319739    1.0475913   -2.9747258 
H    -0.5905429    0.6315637   -2.0454018 
H    -4.2332427    1.2700415    2.3977286 
C     0.3607124    4.6203608   -0.4160358 
O     1.4828660    4.8399678   -0.5755645 
O    -0.7761226    4.4496462   -0.2682534 
