31
Energy = -816.6380678941
N     1.2217860   -0.2870168   -1.9307040 
C     1.6954232   -0.4148304   -0.5615869 
C     2.2420657    0.9354868   -0.0810270 
C     3.2143154    0.7716413    1.0710011 
O     4.3012700    0.2594088    0.9074425 
N     2.8146590    1.2959863    2.2575194 
C     0.6576705   -0.8829802    0.4568395 
O     1.0751123   -1.2552039    1.5427237 
N    -0.6784322   -0.8596710    0.2177920 
C    -1.4155779   -0.4069669   -0.9452004 
C    -2.8690445   -0.7729648   -0.6075955 
C    -2.9143665   -0.6474392    0.9066287 
C    -1.5648214   -1.1961580    1.3332575 
C    -1.2854973    1.0841405   -1.1673269 
O    -0.8991946    1.8860057   -0.3612752 
O    -1.7248355    1.4257510   -2.3858079 
H     1.1511605   -1.1978627   -2.3662050 
H     1.8967162    0.2360595   -2.4722964 
H     2.5114959   -1.1388287   -0.4599165 
H     1.4242349    1.6195826    0.1450961 
H     2.8295635    1.3670847   -0.8950759 
H     1.8314876    1.4237486    2.4180511 
H     3.3705675    1.0415794    3.0567618 
H    -1.0963177   -0.8953941   -1.8604959 
H    -3.5843051   -0.1417317   -1.1331849 
H    -3.0465818   -1.8067448   -0.9110666 
H    -2.9989956    0.4021720    1.1953469 
H    -3.7455005   -1.1908552    1.3544583 
H    -1.5884935   -2.2807058    1.4772434 
H    -1.1808125   -0.7580844    2.2527263 
H    -1.6449513    2.3847911   -2.4539231 
