20
Energy = -680.6124641929
H    -1.7195504    4.4676141   -2.1697445 
N    -0.7454881    4.7177529   -2.2871376 
H    -0.8573458    2.1371196   -2.1901089 
O     0.7690755    2.7468255   -4.4262976 
C     0.1098519    3.8993780   -1.4378754 
O     1.1768492    0.7564419   -2.1461861 
H     1.1118750    3.9387175   -1.8778959 
O     1.6412748    0.7330231   -5.1564237 
C     1.2054300    1.7247790   -4.7638567 
H    -0.5128328    4.5806686   -3.2609449 
N     1.5495341    1.5108111   -0.0488722 
C     0.8756497    1.4782057   -1.2105544 
H     1.3443554    2.2386654    0.6238745 
O    -0.0486693    5.8788000   -0.1113421 
H    -0.9542842    2.3035134   -0.4265775 
C    -0.3072720    2.4279838   -1.2980471 
H    -0.3754994    6.0307454   -1.0274111 
C     0.2515306    4.5934535   -0.0796638 
O     0.6227342    4.0357474    0.9215336 
H     2.3876666    0.9624542    0.0284804 
