19
Energy = -700.4726870033
H     0.5034326    2.3925446   -0.0775683 
C    -0.0993395    2.1277169    0.7876102 
H    -1.1548871    2.1765040    0.5041504 
H    -1.0062526    2.2334229    2.9892016 
O    -0.4664148    3.0601186    2.9880906 
C     0.1823183    3.1848493    1.8430565 
O     0.9625861    4.0797911    1.6480020 
H    -0.3387250   -1.4402078    1.0932564 
O    -1.5645055    0.6530646    2.7931320 
O    -1.0013797   -1.2425522    1.7966249 
C    -0.8652395    0.0446014    2.0159037 
N     0.6489101   -0.1965162    0.1407871 
H     1.6337943   -0.1089450   -0.0666612 
H     0.1380772    0.0097705   -0.7084615 
O     3.1420234    2.1037745    0.6556724 
C     3.5685311    3.1715369    0.8216266 
H     1.1098774    0.7463226    1.9129030 
C     0.2632253    0.7001353    1.2205825 
O     4.0328535    4.2147109    0.9730135 
