17
Energy = -910.0765384155
H    -1.3925868   -0.6612907    1.3117997 
S    -0.9635906   -1.2579187    0.1899749 
C     4.2101793   -2.2670152   -1.4648851 
O     1.7838570   -0.9316534   -2.2031105 
O     4.2802890   -2.8479442   -2.4591332 
C     1.4825929    0.0864055   -1.6420827 
O     4.1737951   -1.7020425   -0.4524843 
C     1.3970192    0.2053353   -0.1142920 
H     1.2953230   -1.9268879    0.0311664 
H     2.4413240    0.2738005    0.2091333 
H     1.0002989   -1.1083083    1.5637769 
C     0.8150279   -1.0657385    0.4917727 
N     0.7295173    1.4470271    0.2345616 
H     1.0039575    1.8564180   -1.5642665 
O     1.2421808    1.2226167   -2.2757694 
H     1.0570302    1.8266652    1.1103710 
H    -0.2713838    1.2923671    0.3006228 
