23
Energy = -719.8935158060
H    -1.4110135   -0.4013041   -2.3913903 
H    -0.2980448   -2.6314561   -2.3506030 
H     0.8154389   -1.3588769   -2.7870675 
C     0.2166915   -1.7473887   -1.9621426 
O     2.6535292   -3.1466374   -2.4656950 
C     2.1911308   -3.1781061   -1.3595377 
O     2.5444016   -4.0739009   -0.4446894 
H     1.9822524   -3.8625997    0.3330577 
C    -0.2175539    0.4494108   -0.8043261 
O     0.0549186    0.3953445    0.3868090 
C     1.1658298   -2.1651432   -0.8458123 
N     0.5475066   -2.6625358    0.3745502 
H    -1.5328430   -1.1838381   -0.8187702 
H    -0.2751688   -3.2165405    0.1708033 
H     1.7630635   -1.2953650   -0.5536141 
C    -0.8357351   -0.7264404   -1.5219699 
H     0.2617314   -1.8819484    0.9536046 
N     0.0523672    1.5350216   -1.5533310 
H    -0.1636434    1.5671640   -2.5311319 
H     0.5134517    2.3187517   -1.1213789 
O     1.3953324    3.1033089    0.7917909 
C     1.3817683    2.4453974    1.7481257 
O     1.3961002    1.8331884    2.7250853 
