23
Energy = -736.8832537035
N    -1.1300992    1.0600935   -2.0312308 
H    -3.1385087    1.7026279   -2.3238966 
C    -2.0907909    1.7686598   -2.5710098 
O    -3.0872290   -0.9820434   -0.8781786 
O    -0.9460415   -1.4039049   -0.1102384 
C    -2.0058031   -1.1690646   -0.5131769 
H    -2.1411724    3.2483243   -4.0675095 
N    -1.6051101    2.6067616   -3.5117741 
N     0.9865222    1.3768506    0.1867645 
H     1.2385710    0.5744176    0.7443066 
H     0.0325347    1.2334749   -0.1305134 
C     1.8718175    1.5328200   -0.9615987 
H     2.8416323    1.0868251   -0.7218380 
H     1.2792857   -0.1760989   -2.1220115 
H     2.0868105    1.0998489   -3.0452641 
C     1.3569441    0.9042997   -2.2603823 
C     0.0328389    1.4537183   -2.6543569 
O     1.7399533    3.7913616   -0.1893488 
O     2.7309464    3.4441162   -2.1536167 
H     0.3869321    2.9908986   -4.2315703 
H     1.3041309    3.1538958    0.4258848 
C     2.1618694    3.0238104   -1.1832866 
C    -0.2497085    2.4226354   -3.5758948 
