20
Energy = -589.3541613517
H    -1.5748473   -0.6301160   -3.8884993 
O    -1.8825553    2.5589980   -1.3357144 
O    -1.8828049    3.1976378    0.8874345 
C    -1.8705395    2.8741236   -0.2188607 
H    -0.9331868   -0.2074770   -1.6867071 
C    -0.4902811   -0.6750543   -3.7825071 
C    -0.0779027   -0.4666413   -2.3111248 
H     0.3895344   -1.3448813   -1.8688172 
H    -0.1701626   -1.6430858   -4.1691734 
H     1.8982612    0.3501457   -2.5785741 
H    -0.4352180    0.9017917   -5.3410946 
H     1.4780955    2.9117091   -2.3808891 
H    -0.3836993    1.9807381   -3.3128699 
N     0.4876159    1.5121935   -3.5481687 
C     0.1818418    0.4867932   -4.5447833 
C     0.8822744    0.7198280   -2.3822331 
H     1.1226585    0.1569304   -4.9929234 
O     0.7444728    1.2276240   -0.0360157 
C     0.9895945    1.5877587   -1.1510886 
O     1.4091727    2.8330149   -1.4150989 
