17
Energy = -587.1872865192
H    -1.1699810   -0.1311698   -1.4662767 
H     0.3333032   -1.4243132    0.4966120 
C    -0.8438608   -0.1838495   -0.4250719 
O     0.2683678   -1.0469863   -0.3855215 
H    -1.6734295   -0.5573667    0.1799841 
H    -1.3084331    1.8848666   -0.1085077 
O    -0.9250722    0.6267940    2.3388090 
C    -0.2158716    1.2108762    1.5628875 
H     0.4782157    2.2984969   -1.4317234 
H     1.3060317    0.9778171   -0.9174543 
O     0.2123806   -2.1463848    2.4391081 
C    -0.2990085   -1.8782417    3.4464351 
O    -0.7960698   -1.6580742    4.4619758 
N     0.7177053    1.7490218   -0.6201372 
C    -0.4596801    1.2119593    0.0493258 
O     0.8378657    1.9189372    1.9301845 
H     1.2239090    2.2286841    1.0771460 
