20
Energy = -626.4714588204
C    -2.2052023    1.4401155   -0.4116773 
H    -1.4038464   -0.4064848   -1.0621166 
O    -1.6703759    2.3521791   -0.9860359 
C    -1.5140357    0.1045610   -0.1013490 
H    -2.0991183   -0.5525684    1.7284888 
H    -2.3734880   -1.6591675    0.5458057 
N    -2.3932888   -0.6748163    0.7655008 
H    -3.5978392    0.6148673    0.4394713 
O    -3.4569187    1.4935237    0.0092617 
O    -1.7004416    5.4140464   -0.1388466 
O    -0.7570490    3.9543811    1.3868184 
C    -1.2365642    4.6687454    0.6075298 
H     1.0232281    0.4017935   -1.2945144 
C     0.9110169    0.9485158   -0.3560295 
H     0.6260230    1.9700985   -0.6014981 
H    -0.3445739    1.8800321    1.6345091 
C    -0.1243582    0.2894731    0.5284483 
H     1.8728292    0.9518782    0.1580540 
H     0.2192612   -0.7216790    0.7723380 
O    -0.2636659    0.9315840    1.7802602 
