27
Energy = -818.0642755133
H    -0.6893636   -2.3377158    0.5982504 
C    -0.4806596   -1.8738066    1.5564595 
C    -0.8000664   -0.5338958    1.7525410 
O    -1.8373957    0.9476647   -2.1358455 
C    -0.8652917    1.3868013   -1.5888172 
H    -1.8753507    1.1674128    1.0260976 
C    -1.3531852    0.2903453    0.6305406 
H    -2.0839030   -0.2727876    0.0484883 
C    -0.5322396    0.0179028    3.0012848 
H    -0.7874921    1.0551163    3.1903590 
H     1.1641816   -3.6289846    4.5193189 
C     0.3673189   -2.0573914    3.7987772 
O     0.9394678   -2.7450670    4.8161267 
O     3.4197784   -2.5494388    2.5104484 
C     0.0949999   -2.6334177    2.5615813 
H     0.3295551   -3.6787678    2.3883335 
C     3.1160834   -1.5572691    2.0016941 
C     0.0454788   -0.7244988    4.0175660 
O     2.8363077   -0.5616058    1.4822125 
N     0.7245378    1.6737160    0.2468762 
H     0.5316116    2.5595961   -1.3750355 
O    -0.1865988    2.4378368   -2.0348360 
H     1.4808935    1.1697206    0.6872919 
H     0.3027945    2.2611844    0.9551351 
H     0.2852528   -0.1168020   -0.6856509 
C    -0.2579909    0.7636171   -0.3261821 
H     0.2489403   -0.2870728    4.9866381 
