22
Energy = -590.5730336703
H    -0.8962373    2.1484496    1.4454667 
H    -1.1103078    3.1313388    0.0016776 
C    -0.5296606    3.0354056    0.9206900 
H    -0.7401743    3.9076318    1.5434605 
H     0.7070350    1.8745676   -1.2584248 
C     1.2480272    1.7551126   -0.3185975 
H     0.9261483    0.7983632    0.1054550 
H     1.2737467    0.8762369    2.1596013 
H     2.3114960    1.6855876   -0.5544158 
O     3.6971940    3.8727749    0.8545931 
H     1.2779122    3.8381804    0.1097998 
C     1.7794786    2.8555026    1.9005391 
H     0.9164938    1.8048055    3.4541432 
C     2.7351816    6.5505775    0.9362767 
O     1.9090989    6.2233025    1.6815103 
C     3.2724283    3.0317465    1.6007543 
H     1.5185700    3.7268871    2.5084179 
C     0.9539275    2.9237321    0.6113825 
H     3.4230021    1.6417960    2.7828867 
O     3.5390400    6.9193010    0.1949561 
O     4.0531112    2.1901886    2.2617289 
N     1.5885808    1.6592447    2.7166884 
