35
Energy = -819.0224748535
N     0.4643925    1.4252836    0.1768671 
C     0.1665043    0.4114651   -0.8079669 
C     0.9901181   -0.8566907   -0.5781250 
C     2.4890806   -0.7241779   -0.8226286 
C     3.2901769   -0.0373425    0.2727752 
C     4.7859819   -0.0444481   -0.0115023 
N     5.6286297    0.5900702    0.9880764 
C    -1.2993143   -0.0029610   -0.9657544 
O    -1.6456296   -0.6876050   -1.9220572 
N    -2.1400320    0.4119443   -0.0086260 
C    -3.5646948    0.1894564    0.0019708 
C    -3.9766254   -1.2975709    0.0291596 
O    -3.9876993   -1.8707335   -1.2377789 
C    -4.1029807    0.9451314    1.1932919 
O    -3.4192666    1.5106920    2.0066603 
O    -5.4345265    0.9217377    1.2456433 
H     0.4035190    1.0878797    1.1270925 
H    -0.0845435    2.2658362    0.0736343 
H     0.4363957    0.8045808   -1.7944187 
H     0.8074891   -1.2139098    0.4438379 
H     0.5849420   -1.6159574   -1.2486264 
H     2.6486626   -0.2033572   -1.7735858 
H     2.8935761   -1.7322654   -0.9647691 
H     3.1078852   -0.5458888    1.2283936 
H     2.9465573    0.9923049    0.3959519 
H     5.1301599   -1.0766033   -0.1363975 
H     4.9728754    0.4492120   -0.9708998 
H     5.3564189    1.5570229    1.1123259 
H     5.5061040    0.1407445    1.8867679 
H    -1.7837763    0.9725334    0.7505626 
H    -4.0280225    0.6177482   -0.8949285 
H    -3.2980766   -1.8163406    0.7223828 
H    -4.9895897   -1.3720326    0.4268896 
H    -3.1549521   -1.6157197   -1.6743242 
H    -5.6995393    1.4198614    2.0289058 
