34
Energy = -1232.906692258
N     1.8387705    1.5352933    1.2799890 
C     1.6463507    1.6361296   -0.1517954 
C     2.5235184    0.6302566   -0.9067350 
C     2.0029327   -0.7964592   -0.9948681 
S     1.6667577   -1.6673475    0.5535227 
C     3.2871729   -1.6685725    1.3298464 
C     0.2188923    1.5262136   -0.6942065 
O    -0.0196605    1.6687192   -1.8783841 
N    -0.7367526    1.2338015    0.2133685 
C    -2.1001313    0.9869237   -0.1640015 
C    -2.3135116   -0.3984815   -0.6908493 
C    -3.1291814   -0.9099014   -1.6613131 
N    -2.9792435   -2.2660689   -1.7474699 
C    -2.0848025   -2.5758550   -0.8440637 
N    -1.6580553   -1.4827483   -0.1673724 
C    -2.9527640    1.1892555    1.0765569 
O    -2.5223986    1.1557289    2.1990945 
O    -4.2353307    1.3752667    0.7773646 
H     1.5265829    0.6424564    1.6402350 
H     1.3989990    2.2884958    1.7884321 
H     1.9821185    2.6317043   -0.4558508 
H     2.6282476    0.9809475   -1.9355095 
H     3.5155067    0.6546556   -0.4522623 
H     1.0495358   -0.8185568   -1.5280974 
H     2.7010707   -1.4049017   -1.5740832 
H     3.6106237   -0.6574704    1.5756418 
H     3.1977947   -2.2472896    2.2483268 
H     4.0186064   -2.1509074    0.6808398 
H    -0.5135857    1.1729144    1.1930675 
H    -2.4091612    1.6942611   -0.9359568 
H    -3.8088032   -0.3699420   -2.3011926 
H    -1.7015440   -3.5637147   -0.6416371 
H    -0.9263113   -1.4556583    0.5257740 
H    -4.7227440    1.4308514    1.6088889 
