41
Energy = -1250.804272909
N     0.7760910   -1.5439127    1.1630626 
C     0.4544340   -0.1427820    1.0854346 
C     1.1321426    0.4873791   -0.1402720 
C     2.6235758    0.5612170   -0.0165659 
C     3.4540110   -0.3969456   -0.5806071 
C     4.8312574   -0.3303754   -0.4369836 
C     5.4025571    0.7086616    0.2854663 
O     6.7432081    0.8286047    0.4602954 
C     4.5869868    1.6787566    0.8555977 
C     3.2155099    1.5986806    0.7004095 
C    -1.0221452    0.2464266    1.0682018 
O    -1.3681079    1.4159696    1.2062717 
N    -1.9051918   -0.7412867    0.8799562 
C    -3.3304539   -0.5027751    0.8571326 
C    -3.8109374    0.1221074   -0.4120712 
C    -4.5687763   -0.3249554   -1.4612037 
N    -4.6933850    0.6506404   -2.4084788 
C    -4.0191732    1.6737994   -1.9430500 
N    -3.4730406    1.4085872   -0.7366562 
C    -4.0110418   -1.8322657    1.1087968 
O    -3.4390740   -2.8889674    1.1014358 
O    -5.3106342   -1.6930891    1.3527612 
H     0.5508704   -2.0587779    0.3243176 
H     0.4001767   -2.0109431    1.9738817 
H     0.8572144    0.3536558    1.9739066 
H     0.7212311    1.4887486   -0.2710935 
H     0.8508554   -0.0927740   -1.0256220 
H     3.0215874   -1.2149451   -1.1452697 
H     5.4630341   -1.0890965   -0.8881331 
H     7.1857597    0.1007292    0.0203744 
H     5.0429151    2.4893324    1.4095200 
H     2.5875686    2.3645635    1.1435523 
H    -1.6014018   -1.6991568    0.8032728 
H    -3.5792687    0.1609170    1.6932374 
H    -5.0399697   -1.2884912   -1.5776060 
H    -3.8956637    2.6258138   -2.4350654 
H    -2.8593339    1.9897192   -0.1821363 
H    -5.6750819   -2.5763236    1.4924465 
C    -0.6982116    4.0307395    0.5705230 
O     0.3021995    4.0509273    1.1474903 
O    -1.6915315    4.0516550   -0.0252169 
