36
Energy = -915.0853665919
N    -1.2714627    2.2687967   -1.1568624 
C    -1.0846025    1.0419123   -0.4055950 
C    -2.4376597    0.3792389   -0.1089701 
C    -2.2702761   -0.9614711    0.5916552 
C    -3.3204268    1.3097808    0.7056885 
C    -0.2104291    0.0609406   -1.1849380 
O    -0.4936218   -0.2192273   -2.3387707 
N     0.8656657   -0.4954612   -0.5778135 
C     1.3815897   -0.1663485    0.7278453 
C     2.5038896   -1.1950792    0.9355073 
C     2.9968429   -1.4519810   -0.4826138 
C     1.7157840   -1.4385912   -1.2982157 
C     1.9253448    1.2500532    0.7905559 
O     2.0877579    1.9874067   -0.1422985 
O     2.2168131    1.5929507    2.0521887 
H    -1.5269383    2.0187725   -2.1062577 
H    -0.3924563    2.7660668   -1.2272963 
H    -0.6296171    1.3071599    0.5524395 
H    -2.9080321    0.2009451   -1.0824429 
H    -3.2439276   -1.4134662    0.7885386 
H    -1.6918341   -1.6701448   -0.0038454 
H    -1.7716288   -0.8374048    1.5585372 
H    -4.3166490    0.8815441    0.8344028 
H    -3.4132437    2.2807761    0.2220451 
H    -2.8962557    1.4668699    1.7025532 
H     0.6282726   -0.2592650    1.5125612 
H     2.0679617   -2.1016598    1.3594024 
H     3.2703247   -0.8377361    1.6212360 
H     3.5444449   -2.3888288   -0.5761701 
H     3.6509887   -0.6416577   -0.8110394 
H     1.2380178   -2.4233464   -1.3254691 
H     1.8519177   -1.1077774   -2.3251483 
H     2.5655877    2.4928467    2.0305817 
C     2.1669285    1.9851172   -3.0566583 
O     1.4016552    2.8510155   -3.0813025 
O     2.9447328    1.1284387   -3.0597947 
