45
Energy = -971.1364123857
N     1.2751702    1.5324900    0.2087947 
C     1.0634848    0.1111694   -0.0187415 
C     1.4464247   -0.7970683    1.1485066 
C     2.9041412   -0.6898271    1.5656610 
C     3.8731692   -1.0687743    0.4624364 
N     5.2350610   -1.0342291    0.9414151 
C     6.2708325   -0.9550690    0.0411537 
N     6.0503229   -0.7577304   -1.1999679 
N     7.5097445   -1.1355543    0.6492680 
C    -0.3773598   -0.1848236   -0.4376108 
O    -0.8017474   -1.3263325   -0.5114549 
N    -1.1108349    0.9002775   -0.7347149 
C    -2.4672988    0.7859158   -1.1923087 
C    -3.4340575    0.6292138   -0.0059375 
C    -4.8956496    0.3383098   -0.3287362 
C    -5.6817565    0.2401518    0.9715546 
C    -5.0590491   -0.9317710   -1.1519252 
C    -2.7911513    2.0187330   -1.9970690 
O    -2.2547536    3.0854316   -1.8614370 
O    -3.7777909    1.8083842   -2.8783462 
H     1.0919912    1.7759875    1.1738729 
H     2.2265871    1.8008471    0.0050469 
H     1.6585016   -0.1695007   -0.8939766 
H     1.1981259   -1.8232420    0.8715767 
H     0.8054286   -0.5477430    2.0017860 
H     3.1357926    0.3246637    1.9053599 
H     3.0648383   -1.3426107    2.4307207 
H     3.8230727   -0.3726442   -0.3746301 
H     3.6148354   -2.0542907    0.0521016 
H     5.4231863   -1.6200602    1.7386909 
H     6.9157720   -0.6259613   -1.7107551 
H     8.2913320   -0.9002036    0.0615941 
H     7.5908807   -0.7283932    1.5678745 
H    -0.6640030    1.8050576   -0.6796366 
H    -2.5445072   -0.0952106   -1.8316168 
H    -3.0323158   -0.1979929    0.5864655 
H    -3.3592101    1.5316100    0.6091010 
H    -5.3036687    1.1743700   -0.9062906 
H    -5.3186248   -0.5929378    1.5800268 
H    -6.7428020    0.0713948    0.7768969 
H    -5.5887260    1.1523058    1.5654582 
H    -4.5877427   -1.7807449   -0.6492792 
H    -4.6134890   -0.8387803   -2.1430635 
H    -6.1163383   -1.1674322   -1.2896908 
H    -3.9457186    2.6527147   -3.3157734 
