43
Energy = -861.6923760791
N     2.5276133    2.2422653   -0.2059153 
C     2.0581942    0.8737729   -0.2582901 
C     3.1128007   -0.1173171    0.2432247 
C     4.3349276   -0.3144606   -0.6555873 
C     5.0159161   -1.6329476   -0.3115979 
C     5.3338840    0.8312174   -0.5704059 
C     0.7945649    0.6703232    0.5784775 
O     0.5840732    1.3128594    1.5917821 
N    -0.0533747   -0.2840747    0.1349262 
C    -1.1837115   -0.7068150    0.9166014 
C    -2.3912987    0.2284581    0.7938279 
C    -2.9759701    0.2797873   -0.6071146 
C    -4.1610473    1.2270841   -0.7418379 
C    -5.3314897    0.8969362    0.1717500 
N    -5.8023213   -0.4642542   -0.0442566 
C    -1.5304775   -2.1136957    0.4963084 
O    -0.9700565   -2.7320083   -0.3688773 
O    -2.5582961   -2.6102623    1.1958734 
H     2.5543929    2.5265608    0.7678115 
H     1.8525570    2.8533439   -0.6483693 
H     1.8306972    0.6299864   -1.3023706 
H     3.4326062    0.1937121    1.2446457 
H     2.6214950   -1.0877363    0.3705764 
H     3.9756815   -0.3803295   -1.6907281 
H     5.8883777   -1.8015119   -0.9463475 
H     4.3389499   -2.4816367   -0.4342444 
H     5.3602104   -1.6279901    0.7268379 
H     4.8711093    1.7819604   -0.8272693 
H     6.1809514    0.6526180   -1.2370722 
H     5.7271021    0.9129979    0.4478398 
H     0.2060850   -0.8775959   -0.6368777 
H    -0.8912528   -0.7364878    1.9719213 
H    -2.0558491    1.2186050    1.1092847 
H    -3.1402128   -0.0988893    1.5179463 
H    -2.1954874    0.5837351   -1.3098605 
H    -3.2874070   -0.7224713   -0.9224338 
H    -3.8351804    2.2514942   -0.5337315 
H    -4.5112740    1.2037498   -1.7770446 
H    -5.0516664    1.1015350    1.2159674 
H    -6.1549228    1.5762415   -0.0617362 
H    -5.1378401   -1.1332217    0.3233851 
H    -6.6697584   -0.6209079    0.4503884 
H    -2.7129947   -3.5049303    0.8677928 
