45
Energy = -917.0035571296
N     1.6691426   -2.7993347    2.3222788 
C     1.8092936   -1.5260567    1.6406257 
C     3.0298610   -1.5711238    0.7270972 
C     3.3295648   -0.2663320    0.0100246 
C     4.5947101   -0.3364870   -0.8268902 
C     4.9020090    0.9637372   -1.5432486 
N     6.1019076    0.8334894   -2.3550764 
C     0.5748606   -1.1854551    0.8113138 
O     0.0618373   -2.0040814    0.0669537 
N     0.0957855    0.0690637    0.9461040 
C    -0.9995224    0.5465491    0.1447371 
C    -2.3548221    0.1079986    0.7242866 
C    -3.5419476    0.2611184   -0.2088634 
C    -4.8192878   -0.2982883    0.3947909 
C    -6.0328159   -0.1800402   -0.5223781 
N    -6.4621220    1.1646803   -0.8656736 
C    -0.8742209    2.0480045    0.0714587 
O    -0.2149511    2.7117240    0.8280465 
O    -1.5930180    2.5804974   -0.9216297 
H     1.3899900   -3.4944785    1.6382201 
H     0.9170790   -2.7541975    2.9985797 
H     1.9647757   -0.7494373    2.3977665 
H     3.8815187   -1.8706567    1.3431598 
H     2.8721782   -2.3679350   -0.0071978 
H     3.4223685    0.5436365    0.7440279 
H     2.4887587    0.0049534   -0.6375232 
H     5.4419491   -0.6023425   -0.1829785 
H     4.5111383   -1.1351542   -1.5696518 
H     4.9546222    1.7759352   -0.8005514 
H     4.0695393    1.2082783   -2.2106300 
H     6.9054182    0.6522744   -1.7668657 
H     6.2942686    1.6915811   -2.8538707 
H     0.5730159    0.7490287    1.5153952 
H    -0.9084767    0.1298224   -0.8624855 
H    -2.2310727   -0.9477091    0.9754296 
H    -2.5287020    0.6420253    1.6642582 
H    -3.6845020    1.3131831   -0.4660074 
H    -3.3274103   -0.2610746   -1.1484826 
H    -5.0340457    0.2157631    1.3399484 
H    -4.6687875   -1.3540189    0.6469637 
H    -5.8308075   -0.7135483   -1.4567554 
H    -6.8803877   -0.6932455   -0.0598112 
H    -6.6548143    1.7027024   -0.0304403 
H    -5.7411144    1.6574858   -1.3747069 
H    -1.4729638    3.5375649   -0.8724481 
