26
Energy = -609.9693146662
N    -3.2711734    1.7517150   -1.5216866 
C    -2.9295167    0.6595887   -0.6418942 
C    -1.4466118    0.3625973   -0.7537177 
O    -0.8230500    0.5971065   -1.7712793 
N    -0.8919491   -0.1987605    0.3437007 
C     0.4576739   -0.7015750    0.3643816 
C     1.4012611    0.1966311    1.1916693 
C     1.4418648    1.5945060    0.5952388 
C     2.8023610   -0.3874946    1.2935072 
C     0.4081388   -2.0962893    0.9469676 
O    -0.3154210   -2.4168728    1.8528138 
O     1.2643003   -2.9396414    0.3630102 
H    -4.2169845    1.6678958   -1.8627574 
H    -2.6423258    1.7217496   -2.3165811 
H    -3.4390224   -0.2885351   -0.8769704 
H    -3.1787194    0.9012913    0.3967682 
H    -1.4700378   -0.4216638    1.1372503 
H     0.8115142   -0.7413229   -0.6668672 
H     0.9714946    0.2539020    2.1987275 
H     1.8666336    1.5736666   -0.4107327 
H     2.0606162    2.2475506    1.2132382 
H     0.4481355    2.0359066    0.5256670 
H     2.8206623   -1.3472287    1.8113351 
H     3.4509571    0.2970927    1.8421075 
H     3.2361604   -0.5348957    0.3013530 
H     1.1831380   -3.7869203    0.8201506 
