40
Energy = -1443.677297375
N     2.5721762    1.2146105   -0.8656377 
C     1.8619839   -0.0161919   -0.6089856 
C     2.7198018   -0.9872191    0.2101148 
C     4.1434839   -1.0863261   -0.3042943 
C     5.0003575    0.0672071    0.1786827 
O     4.8428578    0.5769061    1.2703059 
N     6.0161617    0.4243902   -0.6445393 
C     0.5527250    0.1859491    0.1504041 
O     0.4251462    1.0576799    0.9888826 
N    -0.4349008   -0.6912103   -0.1524200 
C    -1.6595656   -0.7495522    0.6001897 
C    -2.8667772   -0.2040670   -0.1720289 
C    -2.7001606    1.2640225   -0.5139943 
S    -4.0516750    1.9450476   -1.4884655 
C    -5.3705547    1.9477368   -0.2678139 
C    -1.9828401   -2.1406128    1.0991889 
O    -2.8859557   -2.3848580    1.8479763 
O    -1.1798055   -3.0918616    0.5912338 
H     2.7173612    1.7178236    0.0027203 
H     2.0217273    1.8211384   -1.4589024 
H     1.6446156   -0.4808414   -1.5785405 
H     2.7567461   -0.6535018    1.2497059 
H     2.2434970   -1.9699046    0.2063365 
H     4.6113817   -1.9938516    0.0900134 
H     4.1695095   -1.1580738   -1.3944343 
H     6.5432299    1.2409697   -0.3874404 
H     5.9854693    0.1766838   -1.6157310 
H    -0.2457051   -1.4237001   -0.8138460 
H    -1.5037279   -0.1284466    1.4864688 
H    -3.0086824   -0.7806052   -1.0908545 
H    -3.7517972   -0.3577580    0.4468604 
H    -2.5665012    1.8622539    0.3906992 
H    -1.8075930    1.4150594   -1.1237803 
H    -5.6589092    0.9395401    0.0288904 
H    -5.0827597    2.5248994    0.6119425 
H    -6.2292457    2.4288960   -0.7348819 
H    -1.4841741   -3.9321491    0.9563992 
C     2.6594173    1.8595729    2.8295525 
O     2.4629960    0.9365798    3.4972935 
O     2.8532615    2.8012008    2.1851859 
