31
Energy = -1445.393533031
N    -3.4567442   -0.1039241   -0.1317667 
C    -2.5761012    0.8616020   -0.7566443 
C    -2.4419572    2.1047512    0.1183440 
S    -3.9989335    2.9904270    0.3925739 
C    -1.1661628    0.3117687   -0.9438224 
O    -0.3673545    0.8580510   -1.6857003 
N    -0.8780908   -0.7712057   -0.2032897 
C     0.4261473   -1.3692353   -0.2283147 
C     1.4377009   -0.5524005    0.5986304 
C     2.8922456   -0.8725703    0.3113938 
S     4.0474579    0.2139902    1.1669165 
C     3.7871051    1.7460841    0.2640347 
C     0.2930877   -2.7806897    0.2860962 
O    -0.6520856   -3.1991209    0.8981475 
O     1.3689731   -3.5260635    0.0064679 
H    -3.7183595   -0.8276664   -0.7883841 
H    -4.3131682    0.3605250    0.1464773 
H    -2.9026844    1.1850842   -1.7527755 
H    -2.0118953    1.8446849    1.0859918 
H    -1.7700818    2.8072862   -0.3727686 
H    -4.3752703    2.3376793    1.5016955 
H    -1.5972607   -1.1587565    0.3918034 
H     0.7803944   -1.3999137   -1.2629606 
H     1.2246945   -0.6683936    1.6641035 
H     1.2408741    0.4880378    0.3384567 
H     3.1528133   -1.8795383    0.6370105 
H     3.0916382   -0.8218647   -0.7628167 
H     3.9840774    1.6081401   -0.7997484 
H     2.7808729    2.1406085    0.4020451 
H     4.4993672    2.4681364    0.6620456 
H     1.2186006   -4.3955134    0.3988574 
