34
Energy = -1130.332637590
N 3.1919825 2.0743849 -0.7007548
C 2.3001858 0.9351100 -0.7456826
C 2.4910748 -0.0020097 0.3936071
C 2.9660384 -1.2843055 0.4630483
N 2.9243079 -1.7489558 1.7480762
C 2.4279960 -0.7654098 2.4538387
N 2.1512100 0.3149308 1.6868712
C 0.8242597 1.3540579 -0.8631535
O 0.4883311 2.5062748 -1.0616526
N -0.0704200 0.3418365 -0.7729680
C -1.4671140 0.6375194 -0.7211204
C -2.2702559 -0.5943519 -0.9822945
C -1.9060957 -1.8432128 -1.4082142
N -3.0067726 -2.6446674 -1.5362480
C -4.0234995 -1.8993190 -1.1965343
N -3.6329476 -0.6466696 -0.8534198
C -1.8313974 1.2821148 0.6172127
O -1.1156540 1.3528336 1.5743199
O -3.0750749 1.7833949 0.5897514
H 3.3189873 2.3808881 0.2542528
H 2.7552484 2.8456943 -1.1933883
H 2.5078077 0.3582334 -1.6561363
H 3.3467858 -1.8856608 -0.3481100
H 2.2470936 -0.7796014 3.5174058
H 1.7022075 1.1651911 1.9882784
H 0.2485403 -0.5297444 -0.3781912
H -1.6776677 1.4015283 -1.4778521
H -0.9174616 -2.2028459 -1.6443836
H -5.0572937 -2.2072431 -1.1765594
H -4.2156049 0.1083733 -0.5363023
H -3.2366696 2.2043783 1.4439181
C 0.2930769 3.8739541 1.5745905
O 1.2658850 3.3449281 1.9180848
O -0.6699610 4.4266155 1.2615527
