34
Energy = -893.0393858307
N    -4.5321244    1.4131847   -0.6113443 
C    -4.0679304    0.4260554   -1.5677633 
C    -2.8436666   -0.3432743   -1.0993536 
O    -2.4554011   -1.3296485   -1.7043144 
N    -2.2508376    0.1594894   -0.0074392 
C    -1.0600028   -0.4131869    0.5570668 
C     0.2029342    0.1414571   -0.1193781 
C     1.5107627   -0.4861398    0.3277485 
C     2.6800374   -0.0267236   -0.5259033 
C     3.9983692   -0.6380730   -0.0942631 
N     5.0812296   -0.1887957   -0.9554675 
C    -1.0631029   -0.1109130    2.0356870 
O    -1.5837032    0.8524746    2.5316700 
O    -0.3942775   -1.0248324    2.7480424 
H    -4.9942753    2.1852072   -1.0668284 
H    -5.1834205    1.0136557    0.0492618 
H    -4.8098812   -0.3251899   -1.8580887 
H    -3.7664814    0.9300389   -2.4891665 
H    -2.6515613    0.9934754    0.4005684 
H    -1.0864020   -1.4938543    0.4058236 
H     0.2260065    1.2260859    0.0270332 
H     0.0633237   -0.0353635   -1.1885114 
H     1.4255542   -1.5752274    0.2700209 
H     1.7084604   -0.2481391    1.3770191 
H     2.7588468    1.0668658   -0.4829157 
H     2.5032825   -0.2821866   -1.5746738 
H     4.1607913   -0.4192506    0.9733131 
H     3.9291300   -1.7267155   -0.1805286 
H     5.2202675    0.8085953   -0.8541232 
H     5.9529005   -0.6316246   -0.6982966 
H    -0.4103865   -0.7295942    3.6674149 
C    -0.6266705   -3.3079357   -2.4392664 
O    -1.3231235   -3.6440988   -3.2967365 
O     0.1080676   -3.0099895   -1.5941899 
