39
Energy = -896.4154253423
N    -2.4524328    0.1923990   -1.0946487 
C    -1.9427102    0.6217635    0.1888841 
C    -2.2703361   -0.3840191    1.2922257 
C    -3.7510849   -0.6150937    1.6161245 
C    -4.4662760   -1.5222124    0.6227505 
C    -4.5085562    0.6914970    1.8010887 
C    -0.4457866    0.9288966    0.2813874 
O     0.0205462    1.5258655    1.2374182 
N     0.3162026    0.4906196   -0.7399707 
C     1.7339297    0.7130845   -0.7778565 
C     2.4710145   -0.3053470    0.1065968 
C     3.9641780   -0.0863197    0.2559240 
C     4.7825037   -0.7184081   -0.8539610 
O     4.3345398   -1.5562318   -1.6092363 
N     6.0712069   -0.3069601   -0.9143481 
C     2.1589355    0.6497733   -2.2244391 
O     1.5121834    0.1440863   -3.1011313 
O     3.3429102    1.2360130   -2.4281118 
H    -2.1887457    0.8039439   -1.8535109 
H    -2.1972184   -0.7585461   -1.3214285 
H    -2.4212878    1.5723151    0.4435326 
H    -1.8016821   -1.3436816    1.0389021 
H    -1.7673903   -0.0217102    2.1912349 
H    -3.7520020   -1.1342416    2.5820997 
H    -3.9294660   -2.4654365    0.4908501 
H    -5.4710544   -1.7619551    0.9787317 
H    -4.5549682   -1.0418193   -0.3517251 
H    -5.5120230    0.5033816    2.1882387 
H    -3.9978904    1.3582110    2.5000969 
H    -4.6194327    1.2164013    0.8491795 
H    -0.0974837    0.0362407   -1.5371934 
H     1.9424316    1.7155483   -0.3927611 
H     1.9931265   -0.2281643    1.0834181 
H     2.2924061   -1.3081415   -0.2856437 
H     4.3021599   -0.5490411    1.1885824 
H     4.2063055    0.9771080    0.3379306 
H     6.4350484    0.3945215   -0.2983497 
H     6.6804709   -0.7290846   -1.5915084 
H     3.5876279    1.0645444   -3.3462729 
