34
Energy = -743.8488450144
N    -3.2286928    2.1455328   -0.6446767 
C    -2.9899183    0.9996278    0.2065652 
C    -4.2463326    0.2064620    0.5711715 
C    -2.0353199    0.0698618   -0.5285815 
O    -2.0798369   -0.0675960   -1.7388033 
N    -1.1827613   -0.6208598    0.2521871 
C    -0.3112003   -1.6293255   -0.2852101 
C     0.9340634   -1.0461375   -0.9661563 
C     1.8389822   -0.2730684   -0.0251966 
C     2.9952520    0.3920500   -0.7517496 
C     3.8811972    1.2266867    0.1573561 
N     3.1290761    2.3204357    0.7543603 
C     0.0644805   -2.5581986    0.8417151 
O    -0.2168511   -2.3878612    1.9983947 
O     0.7745337   -3.6058792    0.4104057 
H    -4.1190786    2.5725427   -0.4300273 
H    -3.2560282    1.8237729   -1.6061098 
H    -2.5052561    1.3333251    1.1317099 
H    -4.9617196    0.8564624    1.0796371 
H    -4.7160520   -0.1855070   -0.3329941 
H    -4.0204546   -0.6296670    1.2373208 
H    -1.2020939   -0.5198140    1.2537997 
H    -0.8619162   -2.2084581   -1.0328689 
H     0.5703329   -0.3956253   -1.7644489 
H     1.4801804   -1.8648848   -1.4412037 
H     2.2408357   -0.9415083    0.7461479 
H     1.2666707    0.4939145    0.5005513 
H     3.6117257   -0.3650036   -1.2475269 
H     2.6002087    1.0316086   -1.5506840 
H     4.2542021    0.5958514    0.9706497 
H     4.7621337    1.5576039   -0.4124405 
H     2.8430185    2.9811693    0.0429353 
H     3.6962190    2.8299277    1.4176274 
H     0.9906998   -4.1375411    1.1863432 
