45
Energy = -971.1452429252
N     2.5183943   -0.6132159    1.5479107 
C     1.8981313    0.4488552    0.7714473 
C     2.6277736    0.8091472   -0.5197109 
C     4.0371371    1.3584668   -0.3284299 
C     4.0395643    2.6734470    0.4380730 
C     4.7137629    1.5277885   -1.6811099 
C     0.4369378    0.1340943    0.4585271 
O    -0.2259691    0.8760803   -0.2626578 
N    -0.0423264   -0.9692967    1.0348445 
C    -1.4127246   -1.3827291    0.9059569 
C    -1.6729059   -2.1523268   -0.4087727 
C    -3.1095440   -2.0807507   -0.9226006 
C    -3.3418352   -0.9032734   -1.8695063 
N    -2.9975501    0.3899279   -1.3416311 
C    -3.7323931    0.9772344   -0.3361136 
N    -4.9209692    0.6822305    0.0398570 
N    -3.0694356    2.0255349    0.2627124 
C    -1.7347386   -2.2498515    2.0998015 
O    -0.9147536   -2.7100029    2.8488842 
O    -3.0438123   -2.4808800    2.2169632 
H     3.0122066   -1.2607294    0.9475274 
H     3.1850432   -0.2493715    2.2115395 
H     1.8446481    1.3392659    1.4059265 
H     2.0192749    1.5326638   -1.0676198 
H     2.6737698   -0.0918059   -1.1449211 
H     4.6182123    0.6266555    0.2467346 
H     3.4386977    3.4235358   -0.0835727 
H     3.6362504    2.5702271    1.4477208 
H     5.0538362    3.0660165    0.5327763 
H     4.7445706    0.5852969   -2.2323083 
H     4.1724899    2.2534835   -2.2943763 
H     5.7389625    1.8862725   -1.5688776 
H     0.5717511   -1.4593489    1.6744024 
H    -2.0594846   -0.5033385    0.9352674 
H    -0.9956800   -1.7255741   -1.1530801 
H    -1.3580785   -3.1899657   -0.2700845 
H    -3.3486862   -2.9999282   -1.4640677 
H    -3.8057678   -2.0259199   -0.0840604 
H    -4.3850995   -0.8939042   -2.1970108 
H    -2.7446906   -1.0473693   -2.7740950 
H    -2.0092738    0.5988908   -1.3100599 
H    -5.3135576   -0.0602588   -0.5255787 
H    -2.0625502    1.9767732    0.2833621 
H    -3.5161492    2.3500617    1.1016508 
H    -3.1635392   -3.0621088    2.9784602 
