27
Energy = -834.3270332914
N     1.6981245    0.0915650   -2.6032695 
C     1.2772600   -0.0859666   -1.2335817 
C     2.0964415    0.8351387   -0.3271827 
C     3.5669831    0.5384472   -0.3848191 
O     4.4347458    1.3477496   -0.5552011 
O     3.8267104   -0.7667467   -0.1773339 
C    -0.1931315    0.2465434   -0.9988225 
O    -0.7643597    1.1089600   -1.6360680 
N    -0.7974855   -0.4705762   -0.0176197 
C    -2.0459131   -0.0467063    0.5387410 
C    -2.8945966   -1.2344590    0.9459039 
O    -2.1594753   -1.9505873    1.9170079 
C    -1.8099834    0.8948374    1.7127307 
O    -0.7358641    1.2171446    2.1326681 
O    -2.9669445    1.3417830    2.2193844 
H     1.2805388   -0.6150680   -3.1943792 
H     1.3486791    0.9835501   -2.9364450 
H     1.4689242   -1.1215488   -0.9417124 
H     1.9552053    1.8731544   -0.6267491 
H     1.7635694    0.7420792    0.7110309 
H     4.7847289   -0.8646564   -0.2320606 
H    -0.2324948   -1.0708665    0.5599598 
H    -2.5723039    0.5240238   -0.2305116 
H    -3.8495952   -0.8796864    1.3439583 
H    -3.0814437   -1.8445066    0.0558358 
H    -2.6528487   -2.7271022    2.1807881 
H    -2.7453712    1.9340007    2.9485475 
