37
Energy = -1081.512899332
N    -2.9500466   -1.8766869    0.9900653 
C    -2.3829692   -1.1582746   -0.1320189 
C    -3.4276821   -0.1412995   -0.6487965 
O    -4.6180502   -0.8409145   -0.9005204 
C    -3.6514581    1.0108416    0.3138782 
C    -1.0768839   -0.4673087    0.2264441 
O    -0.7204444   -0.3261508    1.3870762 
N    -0.3623594    0.0116219   -0.8058279 
C     0.8393704    0.7744367   -0.5964569 
C     2.0330748   -0.1286368   -0.2427492 
C     3.1674412    0.5930119    0.4717093 
C     4.2567509   -0.4002280    0.8147477 
O     5.0518167   -0.7924002   -0.0146217 
N     4.2577171   -0.8355983    2.0970162 
C     1.0870838    1.5645875   -1.8583840 
O     0.5268947    1.3615224   -2.9026415 
O     2.0176992    2.5065113   -1.6959731 
H    -2.6140230   -2.8282821    1.0148958 
H    -2.6400933   -1.4374746    1.8505159 
H    -2.2052285   -1.8602617   -0.9509575 
H    -3.0879587    0.2522656   -1.6118388 
H    -4.7207214   -1.4255800   -0.1362934 
H    -4.4456527    1.6503498   -0.0706287 
H    -3.9595726    0.6399433    1.2935949 
H    -2.7503928    1.6144203    0.4429008 
H    -0.6875538   -0.0696186   -1.7567033 
H     0.6773675    1.4697649    0.2326541 
H     1.6339532   -0.9020662    0.4151519 
H     2.4078069   -0.6239496   -1.1416433 
H     2.7808148    1.0837293    1.3681310 
H     3.6122006    1.3512126   -0.1708027 
H     4.9078017   -1.5574961    2.3524298 
H     3.5350275   -0.5745252    2.7424503 
H     2.1481910    2.9315897   -2.5534340 
C     0.3773117   -0.4826041    3.9261892 
O    -0.6529776   -0.7900312    4.3442729 
O     1.4314496   -0.1778927    3.5520713 
