41
Energy = -1104.759007153
N     2.5763142    0.9622618   -0.8279468 
C     1.9633154   -0.3235198   -1.0587733 
C     2.4097640   -1.3347460   -0.0019832 
C     3.9153207   -1.3796583    0.1701936 
C     4.4488582   -0.2878248    1.0503099 
O     3.8253155    0.3067525    1.8935515 
O     5.7539328   -0.0713541    0.8471236 
C     0.4361429   -0.3979438   -1.1328910 
O    -0.1168998   -1.4032368   -1.5432556 
N    -0.2235012    0.6878277   -0.6823689 
C    -1.6568854    0.7707648   -0.6308928 
C    -2.1733347    0.8146701    0.8231949 
C    -3.6803438    1.0198741    0.8865041 
C    -1.7292171   -0.4230147    1.6049596 
C    -2.3181852   -1.7435341    1.1355172 
C    -2.0776069    2.0227180   -1.3695084 
O    -1.4890460    3.0690784   -1.3077154 
O    -3.1899437    1.8517751   -2.0924819 
H     2.4159302    1.3259714    0.1012450 
H     2.3298778    1.6518132   -1.5218169 
H     2.3054337   -0.6884905   -2.0329178 
H     2.0291335   -2.3118247   -0.2964891 
H     1.9508284   -1.0899905    0.9603982 
H     4.2129744   -2.3179867    0.6504429 
H     4.4373790   -1.3433333   -0.7871027 
H     6.0251034    0.6092640    1.4754046 
H     0.3027310    1.4952072   -0.3926171 
H    -2.0515903   -0.1050086   -1.1459492 
H    -1.6919604    1.6833031    1.2877262 
H    -4.2154148    0.2658038    0.3069790 
H    -3.9744336    1.9979362    0.5037131 
H    -4.0228245    0.9547619    1.9208970 
H    -1.9918350   -0.2556968    2.6543545 
H    -0.6385593   -0.4885591    1.5719864 
H    -2.0181224   -1.9736766    0.1119737 
H    -3.4084703   -1.7440138    1.1872429 
H    -1.9623249   -2.5591856    1.7670771 
H    -3.3961694    2.7036308   -2.4986653 
C     1.3592132    1.1700476    3.0315393 
O     1.2129528    1.8791377    2.1260887 
O     1.4698868    0.4746125    3.9456407 
