38
Energy = -1045.345260459
N     0.8964912   -1.2515048   -1.1480910 
C     0.5381597   -0.6838238    0.1254725 
C     1.3003538    0.6282927    0.3601207 
C     2.7751245    0.4293950    0.5355294 
C     3.2961536    0.1167540    1.7856111 
C     4.6520574   -0.1026027    1.9672946 
C     5.5192788   -0.0084066    0.8859349 
O     6.8567685   -0.2082509    1.0015103 
C     5.0177696    0.3070666   -0.3701025 
C     3.6607082    0.5199759   -0.5333286 
C    -0.9440304   -0.4318269    0.3985343 
O    -1.3275710   -0.0971748    1.5141471 
N    -1.7825297   -0.5821238   -0.6359122 
C    -3.2020146   -0.4119626   -0.4951100 
C    -3.6456409    1.0665269   -0.3655134 
C    -4.5192163    1.3625294    0.8450550 
O    -5.5896131    1.9242358    0.7364398 
N    -3.9909993    0.9596838    2.0188445 
C    -3.8511925   -1.0631833   -1.6921332 
O    -3.2503948   -1.4913163   -2.6424418 
O    -5.1755224   -1.0945378   -1.5740551 
H     0.7319063   -0.6342832   -1.9297958 
H     0.4968226   -2.1599456   -1.3259158 
H     0.8454566   -1.3838048    0.9090056 
H     0.8760510    1.1027519    1.2458123 
H     1.1060699    1.2950335   -0.4873275 
H     2.6299356    0.0458552    2.6389705 
H     5.0379759   -0.3407403    2.9535423 
H     7.0680446   -0.4131746    1.9139751 
H     5.7019539    0.3813420   -1.2056410 
H     3.2815509    0.7623744   -1.5193715 
H    -1.4484062   -0.9278610   -1.5218375 
H    -3.5375543   -0.9523239    0.3952862 
H    -2.7420159    1.6737426   -0.2887335 
H    -4.1999027    1.3981788   -1.2410594 
H    -3.0496692    0.5839134    2.0624442 
H    -4.4975870    1.1700286    2.8597174 
H    -5.5346723   -1.4888329   -2.3785784 
