31
Energy = -1342.821534913
N     1.4692817   -1.9282811   -0.9630282 
C     1.6541612   -1.2368741    0.3106646 
C     2.3530480    0.0632570    0.1053938 
C     3.6495668    0.4407661    0.3319848 
N     3.8498826    1.7368481   -0.0493013 
C     2.6890917    2.1458808   -0.4965669 
N     1.7511802    1.1735376   -0.4320547 
C     0.3055732   -0.9571536    0.9761333 
O     0.2026026   -0.7342489    2.1679793 
N    -0.7250602   -0.9122354    0.1127600 
C    -2.0331526   -0.5036722    0.5208474 
C    -2.1235349    1.0017970    0.7802024 
S    -1.6859503    1.9147231   -0.7317475 
C    -3.0271187   -0.9572020   -0.5259316 
O    -2.7344969   -1.4912316   -1.5590475 
O    -4.2822341   -0.6856265   -0.1583071 
H     2.2797472   -1.7941781   -1.5510753 
H     1.3435123   -2.9226547   -0.8254595 
H     2.2389766   -1.8023145    1.0433008 
H     4.4417012   -0.1572139    0.7555785 
H     2.4717530    3.1315395   -0.8780280 
H     0.7719304    1.2765310   -0.6713297 
H    -0.5553109   -1.2060364   -0.8412672 
H    -2.2923610   -0.9924981    1.4662585 
H    -3.1352019    1.2592958    1.0872471 
H    -1.4272277    1.2480117    1.5782011 
H    -1.6922902    3.1314935   -0.1699239 
H    -4.8595290   -0.9740948   -0.8761026 
C    -0.5507888    0.3318047    4.6427935 
O     0.1545536   -0.3881721    5.2055379 
O    -1.2750749    1.0701437    4.1195391 
