43
Energy = -1210.370544910
N     0.4807444    2.1884556    1.4388111 
C     0.9577156    0.9325622    0.8819658 
C     1.7717548    0.0594052    1.8308535 
C     3.1980935    0.5340710    2.0608499 
C     4.0377173    0.6002579    0.7825302 
N     3.9212115   -0.5706081   -0.0438957 
C     3.2532437   -0.5722634   -1.2358921 
N     2.8529938    0.5233868   -1.7640762 
N     3.1180468   -1.8427145   -1.7791880 
C    -0.1671910    0.1225865    0.2495007 
O     0.0056611   -1.0262152   -0.1352018 
N    -1.3258725    0.7816784    0.0921427 
C    -2.3913335    0.2545501   -0.7092003 
C    -3.0778945   -0.9596718   -0.0788158 
C    -3.7303726   -1.8423730   -1.1219410 
O    -3.2546088   -1.9955921   -2.2283423 
N    -4.8485608   -2.4846609   -0.7183334 
C    -3.3648354    1.3756022   -0.9808487 
O    -3.2102456    2.5180044   -0.6434871 
O    -4.4440927    0.9496937   -1.6452209 
H     0.2956869    2.1068156    2.4297638 
H     1.1527861    2.9295800    1.3110209 
H     1.5785839    1.1661175    0.0069471 
H     1.2459048   -0.0042673    2.7909328 
H     1.7891353   -0.9494938    1.4177297 
H     3.2114999    1.5252245    2.5275961 
H     3.6755150   -0.1417910    2.7780411 
H     3.7301570    1.4368628    0.1552643 
H     5.0861233    0.7717415    1.0442944 
H     4.3556413   -1.4253514    0.2488635 
H     2.3180012    0.3439429   -2.6047133 
H     2.4396257   -1.8756101   -2.5236505 
H     2.9159178   -2.5550127   -1.0936731 
H    -1.3418549    1.7564525    0.3642402 
H    -2.0082847   -0.0886456   -1.6790518 
H    -3.7780205   -0.6610244    0.7041752 
H    -2.2899343   -1.5630507    0.3782860 
H    -5.2253659   -2.3692169    0.2024804 
H    -5.2716828   -3.1470642   -1.3434871 
H    -5.0055263    1.7202643   -1.7936550 
C    -0.4987222   -3.0560134   -1.9693117 
O    -0.0239097   -2.4372805   -2.8249616 
O    -0.9432436   -3.7244494   -1.1375194 
