45
Energy = -1182.794807218
N     2.5228764    2.0146575    0.8573899 
C     1.9484462    0.7613722    0.4210364 
C     2.5364161   -0.4085827    1.2325010 
C     3.9608005   -0.7091082    0.8782603 
C     5.0118598    0.0680178    1.3539970 
C     6.3213458   -0.1996086    0.9904259 
C     6.6067325   -1.2578176    0.1361410 
O     7.8718576   -1.5653928   -0.2496478 
C     5.5716688   -2.0458755   -0.3480527 
C     4.2685900   -1.7655811    0.0254842 
C     0.4313181    0.7369301    0.5864334 
O    -0.1227573    1.3377615    1.4888217 
N    -0.2409195   -0.0356708   -0.2978147 
C    -1.6749850   -0.1835133   -0.2311821 
C    -2.3978775    0.9354380   -1.0056241 
C    -3.8895023    0.8688328   -0.8884911 
C    -4.6744504    0.3602497   -1.9180535 
C    -6.0495587    0.2630346   -1.7996201 
C    -6.6688675    0.6772739   -0.6281750 
O    -8.0182538    0.5651863   -0.5526938 
C    -5.9014492    1.1900426    0.4115171 
C    -4.5271546    1.2818842    0.2763025 
C    -2.0834175   -1.5435278   -0.7449037 
O    -2.8716109   -2.2778224   -0.2268539 
O    -1.4643040   -1.8372274   -1.9087312 
H     2.0197728    2.3130561    1.6872224 
H     2.3728565    2.7334170    0.1619261 
H     2.2035272    0.6053075   -0.6319229 
H     2.4397731   -0.1515706    2.2908846 
H     1.9268958   -1.3007176    1.0672220 
H     4.7982058    0.9049333    2.0058053 
H     7.1276598    0.4181821    1.3737884 
H     8.4833028   -0.9497287    0.1581761 
H     5.8024139   -2.8736002   -1.0064536 
H     3.4683062   -2.3938156   -0.3523182 
H     0.2449887   -0.4356797   -1.0815874 
H    -1.9681180   -0.1344151    0.8162004 
H    -2.0203365    1.8739800   -0.5944740 
H    -2.0930146    0.8865375   -2.0535209 
H    -4.1997411    0.0336154   -2.8371911 
H    -6.6563700   -0.1314158   -2.6044241 
H    -8.3143029    0.8726084    0.3059111 
H    -6.3810336    1.5195072    1.3277605 
H    -3.9390343    1.6847405    1.0939234 
H    -1.7823553   -2.7059944   -2.1831948 
