40
Energy = -1021.896274193
N    -3.7552364    1.7830108   -0.4898535 
C    -3.2037618    0.5572497    0.0652579 
C    -4.1904942   -0.6060851   -0.0782210 
C    -5.4607826   -0.5217768    0.7545146 
O    -5.9393955   -1.5145150    1.2662637 
N    -6.0031161    0.7079446    0.8526857 
C    -1.9107583    0.1600067   -0.6462267 
O    -1.7349769    0.4273679   -1.8228037 
N    -1.0178901   -0.5183904    0.0966149 
C     0.1725928   -1.0922160   -0.4760691 
C     1.2803144   -0.0655610   -0.7307788 
C     1.7935754    0.6019636    0.5308449 
C     2.9155839    1.5901857    0.2565851 
N     4.0740758    0.9689923   -0.3549887 
C     4.9763702    0.2920907    0.4289381 
N     4.7418519    0.0899737    1.6670129 
N     6.1154327   -0.0810561   -0.2766500 
C     0.6399574   -2.1789978    0.4616653 
O     0.1465683   -2.4164823    1.5319377 
O     1.6852259   -2.8488896   -0.0290477 
H    -3.1857136    2.5723463   -0.2119167 
H    -3.6708151    1.7243051   -1.5006382 
H    -3.0016436    0.7190089    1.1284195 
H    -4.4762536   -0.6898763   -1.1320064 
H    -3.7140537   -1.5464798    0.1976038 
H    -5.5449173    1.4865067    0.3940719 
H    -6.8524269    0.8152799    1.3770748 
H    -1.2343836   -0.7955994    1.0418910 
H    -0.0825740   -1.5577368   -1.4335047 
H     0.8715134    0.6738191   -1.4233889 
H     2.1014005   -0.5707063   -1.2418290 
H     0.9809749    1.1379027    1.0295095 
H     2.1679547   -0.1388280    1.2417266 
H     3.2050179    2.0730683    1.1942112 
H     2.5655205    2.3629590   -0.4321686 
H     4.4836815    1.4668493   -1.1253941 
H     5.4652060   -0.4777685    2.0927004 
H     6.7030754   -0.7363627    0.2098039 
H     5.9504467   -0.3565312   -1.2320101 
H     1.9429530   -3.4968716    0.6383625 
