31
Energy = -853.7537230103
N     2.5096978   -2.0689437   -1.9118078 
C     1.8415307   -1.4822586   -0.7769134 
C     2.5866337   -0.2925050   -0.1466046 
C     2.0146768    0.1491490    1.1835694 
O     1.4662881   -0.6317259    1.9469621 
N     2.2035131    1.4468421    1.4979159 
C     0.4806337   -0.9818013   -1.2388200 
O     0.2729107   -0.6354932   -2.3864612 
N    -0.4543260   -0.8846945   -0.2671658 
C    -1.6480975   -0.1319907   -0.5127051 
C    -2.5755232   -0.2002962    0.7170610 
O    -3.8002321    0.4457771    0.4621128 
C    -1.9987844    0.4365113    1.9614142 
C    -1.3193458    1.3055400   -0.8884866 
O    -0.3728071    1.9258862   -0.4840090 
O    -2.2335767    1.8174069   -1.7149265 
H     3.5133900   -2.0556369   -1.8050380 
H     2.2574040   -1.5524055   -2.7462940 
H     1.6970589   -2.2297668    0.0075023 
H     2.6284525    0.5392354   -0.8541354 
H     3.6181698   -0.6039603    0.0492866 
H     1.7347092    1.7849967    2.3213481 
H     2.3776697    2.1119796    0.7665492 
H    -0.1386130   -1.0168404    0.6839936 
H    -2.1756888   -0.5692223   -1.3650718 
H    -2.7354053   -1.2718197    0.9028080 
H    -4.1729573    0.1128556   -0.3563931 
H    -1.8228499    1.5004973    1.7987612 
H    -2.7141838    0.3259112    2.7760332 
H    -1.0595463   -0.0260178    2.2672796 
H    -1.9810014    2.7326904   -1.8876648 
