37
Energy = -916.0218096202
N     4.0168339   -0.3400453    0.6411971 
C     3.1211049    0.7863784    0.8368385 
C     3.4100032    1.7889562   -0.2954920 
O     4.7910580    2.0576454   -0.3136052 
C     2.6776875    3.1015198   -0.1699073 
C     1.6309464    0.4870905    0.9490973 
O     0.8707423    1.2424719    1.5295715 
N     1.1988935   -0.6419512    0.3479770 
C    -0.1853677   -1.0198178    0.3817242 
C    -1.0012745   -0.2496304   -0.6815630 
C    -2.4863409   -0.3484987   -0.5137273 
C    -3.2688780   -1.0700966   -1.4068037 
C    -4.6422980   -1.1600751   -1.2346668 
C    -5.2500610   -0.5282667   -0.1609195 
C    -4.4778304    0.1984944    0.7347834 
C    -3.1071482    0.2891896    0.5573350 
C    -0.2517430   -2.5087518    0.1510066 
O     0.6400556   -3.1533730   -0.3394304 
O    -1.4154687   -3.0327823    0.5270512 
H     3.9882060   -1.0064803    1.3983057 
H     3.8569911   -0.8238328   -0.2327995 
H     3.3902297    1.2757455    1.7763811 
H     3.1126825    1.2996955   -1.2407395 
H     5.2240950    1.2309499   -0.0670787 
H     2.9325914    3.5856203    0.7737293 
H     2.9808421    3.7566274   -0.9869889 
H     1.5981876    2.9647229   -0.2037285 
H     1.8384934   -1.3104895   -0.0473199 
H    -0.5997185   -0.7849135    1.3645907 
H    -0.6882936    0.7910864   -0.5791540 
H    -0.6966835   -0.5897397   -1.6741010 
H    -2.7971213   -1.5655981   -2.2485852 
H    -5.2386218   -1.7235269   -1.9422165 
H    -6.3223927   -0.5964018   -0.0246440 
H    -4.9466922    0.7018964    1.5716034 
H    -2.5066925    0.8672182    1.2521856 
H    -1.3971178   -3.9711373    0.2995933 
