37
Energy = -1152.642298450
N     2.2297976   -2.5163062   -1.0405711 
C     1.3333989   -1.4700549   -1.4968355 
C     0.1360935   -2.0572408   -2.1568180 
C    -0.6912032   -1.6414450   -3.1673153 
N    -1.7065341   -2.5390471   -3.3572079 
C    -1.4996454   -3.4869039   -2.4798859 
N    -0.4020034   -3.2388390   -1.7266379 
C     1.0103327   -0.5911992   -0.2768145 
O     1.8747524   -0.3861732    0.5659936 
N    -0.2134929   -0.0581627   -0.2516797 
C    -0.7256554    0.7431339    0.8302141 
C    -0.6917229    2.2464666    0.5234773 
C     0.7237277    2.8117658    0.4582522 
C     1.3083907    2.9748799    1.8503078 
O     1.0269320    3.9352927    2.5408925 
N     2.1249388    1.9801287    2.2566993 
C    -2.1504117    0.3055716    1.0875931 
O    -2.7866183   -0.3830135    0.3296433 
O    -2.6253103    0.7921225    2.2273821 
H     2.8482118   -2.1260178   -0.3393899 
H     2.7871644   -2.8686984   -1.8058661 
H     1.7970764   -0.7689392   -2.2090274 
H    -0.6035327   -0.7497427   -3.7691311 
H    -2.1057326   -4.3700406   -2.3503224 
H     0.0252734   -3.8191024   -1.0243706 
H    -0.8887666   -0.3957589   -0.9260045 
H    -0.1347939    0.5408510    1.7268810 
H    -1.2008407    2.4066679   -0.4305043 
H    -1.2542822    2.7813166    1.2906432 
H     0.6850085    3.8105064    0.0237903 
H     1.3585604    2.1890568   -0.1748320 
H     2.4696916    2.0167732    3.1998563 
H     2.2241525    1.1304194    1.7159614 
H    -3.5493892    0.5075374    2.3117074 
C    -5.4541927   -1.0972129    1.0946258 
O    -5.6332806   -1.8081873    0.2079233 
O    -5.3103674   -0.3887689    2.0056593 
