37
Energy = -1255.201575097
N     2.4897525    1.4446745   -0.6397457 
C     1.7104808    0.2349317   -0.5519017 
C     2.5006287   -0.8512730    0.1807499 
C     3.8884355   -1.0511632   -0.4027248 
C     4.8738720   -0.0106952    0.0932132 
O     4.8447257    0.4136280    1.2300733 
N     5.8483047    0.3345755   -0.7861302 
C     0.3639456    0.4256673    0.1489318 
O     0.1420452    1.3624939    0.8888550 
N    -0.5563562   -0.5378521   -0.1145699 
C    -1.8115925   -0.6045730    0.5829083 
C    -3.0120878   -0.2549851   -0.3049281 
C    -2.9353705    1.1706060   -0.8161940 
S    -4.2727344    1.6210054   -1.9336027 
C    -5.6602966    1.6554570   -0.7921202 
C    -2.0591705   -1.9460066    1.2376579 
O    -2.9800267   -2.1681418    1.9719878 
O    -1.1640308   -2.8862687    0.8875834 
H     2.7181830    1.7647819    0.2946969 
H     1.9448661    2.1824501   -1.0664072 
H     1.5122676   -0.1142963   -1.5740421 
H     2.6088318   -0.5702452    1.2320526 
H     1.9417280   -1.7888374    0.1536013 
H     4.2864334   -2.0172824   -0.0771812 
H     3.8567185   -1.0699091   -1.4952492 
H     6.4566657    1.0868283   -0.5123868 
H     5.7092788    0.1869349   -1.7683445 
H    -0.2876244   -1.3202597   -0.6851265 
H    -1.7508336    0.1296494    1.3909849 
H    -3.0590430   -0.9459507   -1.1518448 
H    -3.9165933   -0.4048931    0.2861238 
H    -2.9008042    1.8805463    0.0140373 
H    -2.0215009    1.3189164   -1.3943889 
H    -5.8892628    0.6676339   -0.3928987 
H    -5.4712173    2.3511081    0.0265485 
H    -6.5226571    2.0078558   -1.3571096 
H    -1.4258608   -3.6970119    1.3416908 
