29
Energy = -947.6308567829
N    -1.1450718   -1.8459065   -1.4548388 
C    -1.6457796   -0.5399614   -1.0646725 
C    -2.5073024   -0.6917015    0.1940584 
C    -3.0937903    0.6299082    0.6163262 
O    -3.9896569    1.1845526    0.0437608 
O    -2.4987774    1.1174780    1.7123727 
C    -0.5066609    0.4242861   -0.7526150 
O    -0.6996963    1.6286914   -0.7214496 
N     0.6701520   -0.1536930   -0.4762176 
C     1.8142027    0.6205298   -0.0880585 
C     1.8349272    0.9123683    1.4126662 
C     3.0583189   -0.1263391   -0.4998187 
O     3.0842667   -1.2674490   -0.8745299 
O     4.1548302    0.6283723   -0.3688226 
H    -0.8060300   -1.8350346   -2.4076456 
H    -1.8736317   -2.5442565   -1.4021806 
H    -2.2541271   -0.0420990   -1.8278868 
H    -1.9124965   -1.1288768    0.9962930 
H    -3.3417139   -1.3570138   -0.0372281 
H    -2.8255576    2.0183893    1.8363404 
H     0.7447871   -1.1572034   -0.5702572 
H     1.7831003    1.5724928   -0.6248000 
H     0.9005531    1.4003092    1.6871331 
H     1.9205188   -0.0143208    1.9827545 
H     2.6668354    1.5670257    1.6688780 
H     4.9082833    0.0785824   -0.6170935 
C    -0.3932454    4.0315637    0.6881297 
O    -1.4423981    3.9319252    1.1669886 
O     0.6638681    4.1747505    0.2432722 
