32
Energy = -837.7158193319
N     2.1372539    0.8776379    1.3281063 
C     1.7626324    1.0220609   -0.0601688 
C     2.5799615    0.0835892   -0.9636668 
C     2.3580212   -1.3802963   -0.6068699 
C     4.0558715    0.4428141   -0.9306707 
C     0.2812606    0.8702968   -0.4128056 
O    -0.1288625    1.0788487   -1.5415945 
N    -0.5390571    0.4871683    0.5881706 
C    -1.9523321    0.3511163    0.3957520 
C    -2.2877414   -0.9110985   -0.4162860 
C    -3.7252738   -1.0434606   -0.8286353 
O    -4.3986697   -2.0246151   -0.6763915 
O    -4.1760084    0.0643567   -1.4378187 
C    -2.5932441    0.3110224    1.7636746 
O    -1.9836091    0.2661996    2.7988406 
O    -3.9239946    0.3093553    1.6910283 
H     1.9652994   -0.0454691    1.6978828 
H     1.7212700    1.5700163    1.9319251 
H     2.0070454    2.0456253   -0.3625020 
H     2.1959531    0.2497126   -1.9731547 
H     2.8619893   -2.0264964   -1.3273119 
H     2.7697517   -1.6216031    0.3771353 
H     1.2982530   -1.6465714   -0.6112143 
H     4.2181769    1.4724425   -1.2568701 
H     4.6258261   -0.2126965   -1.5922296 
H     4.4570742    0.3446776    0.0792426 
H    -0.1927677    0.3803567    1.5274787 
H    -2.3402355    1.2150639   -0.1516430 
H    -1.6876937   -0.8445201   -1.3274645 
H    -2.0055491   -1.8096286    0.1300429 
H    -5.0949723   -0.1042131   -1.6785153 
H    -4.2655290    0.2283076    2.5903334 
