27
Energy = -834.3355808684
N    -1.9838666    0.1407831    1.6645762 
C    -1.9300392   -0.6839695    0.4826650 
C    -2.8078401   -0.0730643   -0.5930660 
O    -2.2899827    1.2172684   -0.8716259 
C    -0.5598800   -0.9783012   -0.1355986 
O    -0.4402861   -1.8341998   -0.9953411 
N     0.4743192   -0.2548544    0.3283631 
C     1.7908519   -0.3832305   -0.2401575 
C     1.9666580    0.4569153   -1.5046728 
C     2.8778394   -0.0321219    0.7475588 
O     4.0384532   -0.2754422    0.5784902 
O     2.4247889    0.6329235    1.8271384 
H    -1.8349213    1.1158828    1.4470450 
H    -1.3547497   -0.1593296    2.3935420 
H    -2.3465510   -1.6704121    0.7081929 
H    -3.8331502   -0.0101271   -0.2139786 
H    -2.7805957   -0.7153359   -1.4774969 
H    -2.8378312    1.6357437   -1.5350221 
H     0.2876237    0.4944720    0.9711497 
H     1.9309065   -1.4332288   -0.5046674 
H     1.2278354    0.1402297   -2.2391647 
H     1.8169691    1.5163579   -1.2887823 
H     2.9651404    0.3147047   -1.9161665 
H     3.1977804    0.8376242    2.3679753 
C    -0.1664931   -3.7894664   -2.9616927 
O    -1.2993603   -4.0198717   -2.9263886 
O     0.9713529   -3.5916751   -3.0324550 
