44
Energy = -994.8521474602
N     1.9581384    0.2549584   -1.8893257 
C     1.8461258   -0.3003907   -0.5597867 
C     2.2136510    0.7160988    0.5386359 
C     1.4688759    2.0341435    0.3751644 
C     3.7230600    0.9102606    0.7052975 
C     4.4632949    1.6013886   -0.4291486 
C     0.5111607   -0.9575615   -0.1941055 
O     0.4161188   -1.6816031    0.7843813 
N    -0.5354958   -0.6788580   -0.9982882 
C    -1.7673218   -1.4191325   -0.9413829 
C    -2.9873484   -0.6049964   -0.4827827 
C    -3.0928626   -0.3011325    1.0143258 
C    -3.0926824   -1.5695738    1.8558667 
C    -2.0553547    0.6893953    1.5229735 
C    -2.0337496   -1.9672710   -2.3260947 
O    -1.4949950   -1.5798229   -3.3296027 
O    -2.9658592   -2.9250043   -2.3221879 
H     1.7293572   -0.4042515   -2.6187538 
H     1.4261962    1.1028944   -2.0155263 
H     2.5613292   -1.1257767   -0.4800697 
H     1.8675186    0.2567117    1.4679470 
H     0.3901665    1.8801790    0.3055823 
H     1.7935175    2.5867490   -0.5091581 
H     1.6524652    2.6771010    1.2378653 
H     4.1713811   -0.0724293    0.8838537 
H     3.8752589    1.4789972    1.6289421 
H     4.0896548    2.6138130   -0.5969016 
H     4.3598818    1.0547256   -1.3655469 
H     5.5256445    1.6848198   -0.1909242 
H    -0.3382484   -0.2169288   -1.8719012 
H    -1.6139527   -2.2607626   -0.2623497 
H    -3.0052476    0.3300860   -1.0519299 
H    -3.8782750   -1.1687607   -0.7706885 
H    -4.0755063    0.1719189    1.1290769 
H    -3.8402870   -2.2856040    1.5060304 
H    -2.1162129   -2.0583973    1.8354695 
H    -3.3175627   -1.3363857    2.8985314 
H    -1.0596742    0.2474886    1.5493020 
H    -2.0198616    1.5871861    0.9016724 
H    -2.2977350    0.9992824    2.5417186 
H    -3.0972734   -3.1977774   -3.2388093 
C     0.4527921   -1.8459254    3.5755070 
O     0.8015839   -0.7453928    3.6645496 
O     0.1009187   -2.9459328    3.5340998 
