37
Energy = -1065.216618115
N    -1.6383240    0.7449639    1.6360836 
C    -2.0824873    0.1629236    0.3823940 
C    -2.1954269    1.1380166   -0.7796628 
C    -3.2553232    2.1700105   -0.5565745 
O    -4.0167751    2.2098710    0.3751907 
O    -3.2792078    3.0838070   -1.5398192 
C    -1.1860698   -0.9987762   -0.0433667 
O    -1.1775247   -1.4145275   -1.1885122 
N    -0.4337411   -1.5064308    0.9515539 
C     0.6381146   -2.4093501    0.6806400 
C     2.0173441   -1.7043332    0.7491579 
C     1.9967256   -0.3907039    0.0268465 
C     1.9676439    0.8077636    0.7332056 
C     1.8569901    2.0294908    0.0900479 
C     1.7711187    2.0688371   -1.2958425 
O     1.6479394    3.2829677   -1.8868598 
C     1.8087416    0.8827033   -2.0196036 
C     1.9190007   -0.3289645   -1.3597941 
C     0.6310285   -3.5647369    1.6507821 
O     0.0744997   -3.5770017    2.7127175 
O     1.3857418   -4.5807059    1.2040398 
H    -0.8416280    1.3511592    1.4770819 
H    -2.3807411    1.3101129    2.0252789 
H    -3.0718684   -0.2694744    0.5612014 
H    -2.4164038    0.5990097   -1.7039031 
H    -1.2414301    1.6453153   -0.9548133 
H    -3.9888990    3.7021932   -1.3263683 
H    -0.5243365   -1.0566367    1.8516518 
H     0.4812390   -2.7893476   -0.3302117 
H     2.2758993   -1.5355397    1.7981038 
H     2.7687676   -2.3799395    0.3359479 
H     2.0278932    0.7864112    1.8161126 
H     1.8405580    2.9585288    0.6458750 
H     1.5894607    3.1699544   -2.8374135 
H     1.7372157    0.9056863   -3.1021201 
H     1.9167171   -1.2441981   -1.9400479 
H     1.3772476   -5.2591591    1.8906005 
