36
Energy = -857.1371696151
N    -1.0401352   -0.1717343   -2.3175382 
C    -1.1250805    0.6739219   -1.1476771 
C    -1.7840837   -0.0476749    0.0289092 
C    -3.2875143   -0.3025396   -0.0777911 
C    -3.6561713   -1.3930504   -1.0740092 
C    -3.8404740   -0.6421118    1.3003408 
C     0.1831005    1.2873907   -0.6379691 
O     0.1818821    2.1915752    0.1826070 
N     1.3173046    0.7526051   -1.1251880 
C     2.6167250    1.2113987   -0.7280169 
C     2.9288987    0.8865154    0.7290224 
C     2.8838409   -0.6056438    0.9652855 
O     3.2896814   -1.3959702    0.1363449 
N     2.3868637   -0.9906353    2.1612390 
C     3.6189928    0.6369688   -1.7067871 
O     3.3235507    0.0636707   -2.7191186 
O     4.8756212    0.9193041   -1.3547477 
H    -0.5659883    0.2666251   -3.0936551 
H    -0.6146416   -1.0674836   -2.1232283 
H    -1.7477876    1.5401357   -1.3964660 
H    -1.6019811    0.5702101    0.9108844 
H    -1.2605016   -0.9987282    0.1987718 
H    -3.7529972    0.6348378   -0.4067053 
H    -4.7383279   -1.5413752   -1.0976281 
H    -3.3128713   -1.1530245   -2.0784985 
H    -3.2013373   -2.3448198   -0.7804438 
H    -4.9191636   -0.8076772    1.2615632 
H    -3.3808917   -1.5580202    1.6842295 
H    -3.6456280    0.1564315    2.0195339 
H     1.2908475    0.0521783   -1.8481825 
H     2.6654986    2.3019705   -0.8329204 
H     2.2157042    1.4236676    1.3539617 
H     3.9332138    1.2376877    0.9751255 
H     1.9761041   -0.3339191    2.7970778 
H     2.3383499   -1.9721868    2.3694584 
H     5.4493963    0.5193998   -2.0191841 
