34
Energy = -893.0264243590
N    -1.2842478    0.0944839    1.8822457 
C    -1.2667301   -0.6744360    0.6599280 
C    -2.4292738   -0.2707475   -0.2433556 
C    -3.7807830   -0.5661549    0.3806123 
C    -5.0074615   -0.1104468   -0.3812153 
O    -6.0792554    0.0332281    0.1691127 
N    -4.8480159    0.1118278   -1.7103545 
C     0.0188512   -0.6663909   -0.1724889 
O     0.1020038   -1.2890090   -1.2164048 
N     1.0533361    0.0413222    0.3215446 
C     2.2833863    0.1668361   -0.4035985 
C     3.2914910    0.9355048    0.4732537 
O     2.6579919    2.0595094    1.0579746 
C     4.5372234    1.3264965   -0.2864837 
C     2.8747492   -1.1735004   -0.8004271 
O     3.4925096   -1.3545336   -1.8116260 
O     2.7230386   -2.1040930    0.1499698 
H    -1.1987105    1.0895852    1.7302996 
H    -0.6075404   -0.2113297    2.5645533 
H    -1.4059986   -1.7273900    0.9307100 
H    -2.3416682    0.7998202   -0.4654160 
H    -2.2934502   -0.8073313   -1.1847835 
H    -3.8516443   -0.1221145    1.3730311 
H    -3.8939149   -1.6462141    0.5251179 
H    -3.9831393   -0.0621268   -2.1850314 
H    -5.6617524    0.3507855   -2.2479680 
H     0.9273257    0.6384025    1.1208379 
H     2.1325007    0.7047786   -1.3459086 
H     3.5504670    0.2934532    1.3197617 
H     2.6085799    2.7568865    0.3997678 
H     4.2863499    2.0036488   -1.1083530 
H     5.2344250    1.8319414    0.3813493 
H     5.0299107    0.4576668   -0.7220588 
H     3.1297464   -2.9106590   -0.1891963 
