31
Energy = -1002.940535125
N    -3.5617865   -0.1407926   -0.9628190 
C    -2.4213356    0.2127850   -0.1524267 
C    -2.5526256   -0.4633673    1.2127991 
O    -1.6652945    0.0620393    2.1900832 
C    -1.0813877   -0.1010649   -0.8286181 
O    -1.0115097   -0.4296429   -1.9997286 
N     0.0143265    0.0214820   -0.0489285 
C     1.2935827   -0.3791404   -0.5567282 
C     2.3779908   -0.1121476    0.4761197 
C     2.5439238    1.3794757    0.7096288 
O     2.5905846    2.1708883   -0.2045185 
N     2.6478372    1.7496190    2.0088428 
C     1.2920410   -1.8579816   -0.9092846 
O     0.6031025   -2.6881929   -0.3815083 
O     2.1904228   -2.1358452   -1.8562865 
H    -3.4390496    0.2526128   -1.8876981 
H    -3.5652430   -1.1443778   -1.1081332 
H    -2.4428754    1.2979109    0.0155489 
H    -3.5929135   -0.3704376    1.5345123 
H    -2.3150362   -1.5258314    1.1291064 
H    -1.9787857    0.9318706    2.4436528 
H    -0.1368679    0.1024075    0.9479985 
H     1.5238027    0.1874902   -1.4600268 
H     2.1553153   -0.6511102    1.4009840 
H     3.3313462   -0.4853899    0.0953316 
H     2.6534048    1.0807404    2.7548394 
H     2.8342480    2.7149111    2.2163337 
H     2.1220613   -3.0797949   -2.0471982 
C    -1.5032420   -3.3426396   -2.2894219 
O    -2.3676313   -3.2331342   -1.5270705 
O    -0.6619640   -3.4899290   -3.0679281 
