47
Energy = -1296.096330116
N     2.5792465   -3.1988681   -0.2796882 
C     2.4941141   -2.4131321    0.9266919 
C     3.5651628   -1.3099602    0.9179588 
C     3.4117643   -0.3601397   -0.2338523 
C     2.5476328    0.7299180   -0.1443434 
C     2.3560467    1.5770758   -1.2241420 
C     3.0352597    1.3540688   -2.4145244 
C     3.9089851    0.2817842   -2.5120445 
C     4.0935730   -0.5671022   -1.4300886 
C     1.1416487   -1.7875400    1.2844287 
O     0.9576809   -1.2649483    2.3710751 
N     0.1830136   -1.8576524    0.3397524 
C    -1.1114675   -1.2592534    0.5281589 
C    -1.0535871    0.2770257    0.3675184 
C    -2.3832935    0.9559821    0.4688419 
C    -3.0769689    1.3400414   -0.6754950 
C    -4.3238778    1.9349055   -0.5987352 
C    -4.9045997    2.1568123    0.6432119 
O    -6.1277311    2.7429486    0.6732433 
C    -4.2246673    1.7846394    1.7970419 
C    -2.9769412    1.1913020    1.7035420 
C    -2.0446033   -1.8430318   -0.5022911 
O    -1.7121792   -2.1152566   -1.6281477 
O    -3.2847742   -1.9974078   -0.0476360 
H     1.9129191   -3.9560208   -0.3072542 
H     2.4954960   -2.6428449   -1.1198842 
H     2.7193383   -3.0633131    1.7774240 
H     4.5387609   -1.7997897    0.8704492 
H     3.4952862   -0.7733926    1.8646291 
H     2.0258950    0.9128729    0.7878458 
H     1.6785628    2.4180121   -1.1356367 
H     2.8892558    2.0185390   -3.2573691 
H     4.4497417    0.1039476   -3.4337718 
H     4.7753108   -1.4062250   -1.5114767 
H     0.4042908   -2.2257683   -0.5711903 
H    -1.4738427   -1.4949338    1.5292594 
H    -0.5918342    0.4951570   -0.5968167 
H    -0.3764819    0.6276887    1.1471841 
H    -2.6282048    1.1725570   -1.6490892 
H    -4.8569434    2.2385027   -1.4906565 
H    -6.4079414    2.8447914    1.5845308 
H    -4.6702496    1.9639978    2.7704659 
H    -2.4541359    0.9091614    2.6110123 
H    -3.8299732   -2.2909217   -0.7891485 
C     0.4133877   -0.7693854   -3.1400464 
O     1.0872567   -1.6908413   -2.9493650 
O    -0.2501525    0.1545317   -3.3435797 
