36
Energy = -853.2957595905
N    -0.1878798   -1.0782079   -0.4977605 
C     0.2272076    0.1759842    0.1090354 
C    -0.3990144    0.4880700    1.4707384 
C    -1.9152522    0.3737077    1.4657473 
C    -2.6014289    1.3587732    0.5260486 
N    -3.9577028    0.9937775    0.1823545 
C    -4.1797055   -0.0128420   -0.7177453 
N    -3.2104333   -0.5759161   -1.3399249 
N    -5.5229950   -0.3354870   -0.8386314 
C     1.7462183    0.2785747    0.2080192 
O     2.3050646    1.1133119    0.8993059 
N     2.4097725   -0.6160657   -0.5454363 
C     3.8472330   -0.6478153   -0.5973875 
C     4.4435442    0.4968108   -1.3981499 
C     4.4682480   -0.7208805    0.7914548 
O     5.5150151   -0.2214565    1.0942931 
O     3.7658808   -1.5026957    1.6259024 
H    -1.1350060   -0.9872390   -0.8634656 
H    -0.2078013   -1.8113690    0.2015617 
H    -0.0476006    0.9681009   -0.5961995 
H     0.0126436   -0.2088915    2.2082257 
H    -0.0724525    1.4819337    1.7840753 
H    -2.2954707    0.5127035    2.4823314 
H    -2.2015343   -0.6349981    1.1590379 
H    -2.6181054    2.3609448    0.9603891 
H    -2.0579665    1.4268142   -0.4153853 
H    -4.6409801    1.0641150    0.9174823 
H    -3.5523607   -1.2094099   -2.0526934 
H    -6.1577202    0.4449891   -0.7831079 
H    -5.7373689   -0.9535384   -1.6020766 
H     1.8328336   -1.2674171   -1.0569460 
H     4.1204163   -1.5989895   -1.0676069 
H     4.0641712    0.4652053   -2.4197408 
H     5.5297286    0.4243440   -1.4152664 
H     4.1683462    1.4469919   -0.9430814 
H     4.2424554   -1.4917330    2.4643027 
