40
Energy = -1253.682070355
N     0.4658675    3.0008921   -0.6729695 
C     0.1036964    1.7602080   -1.3047327 
C     1.2891580    0.8837989   -1.7956227 
C     2.0586582    0.2325453   -0.6877260 
C     2.9901446    0.9361330    0.0678031 
C     3.6329575    0.3503116    1.1462835 
C     3.3550112   -0.9665534    1.4890296 
O     3.9503961   -1.5915159    2.5358163 
C     2.4431259   -1.6934060    0.7343968 
C     1.8089162   -1.0929877   -0.3377309 
C    -0.7233105    0.9537374   -0.3180571 
O    -0.6792564    1.1428937    0.8824367 
N    -1.4685563   -0.0335120   -0.8633794 
C    -2.0956417   -1.0343710   -0.0501175 
C    -3.5610364   -0.7123553    0.2919099 
C    -3.6319636    0.5420021    1.1219003 
O    -3.9525933    1.6193849    0.7044966 
O    -3.2707644    0.3030328    2.3862872 
C    -2.0045398   -2.3563730   -0.7765567 
O    -1.5869705   -2.4908492   -1.8958682 
O    -2.4548543   -3.3692993   -0.0337847 
H     1.2443471    3.4418028   -1.1400933 
H     0.7055471    2.8414879    0.2973051 
H    -0.5226007    1.9732068   -2.1793347 
H     1.9367087    1.5319570   -2.3932562 
H     0.9090517    0.1153233   -2.4744941 
H     3.2236471    1.9631539   -0.1867842 
H     4.3549310    0.9198246    1.7229653 
H     4.5464562   -0.9800473    2.9718788 
H     2.2455744   -2.7246117    0.9983785 
H     1.1022354   -1.6704334   -0.9242330 
H    -1.3976786   -0.2334359   -1.8477918 
H    -1.5374040   -1.1162080    0.8877634 
H    -4.1312528   -0.5537068   -0.6222749 
H    -3.9837572   -1.5453323    0.8536977 
H    -3.1328915    1.1567635    2.8194465 
H    -2.3784972   -4.1712819   -0.5657161 
C    -0.6048163    2.9418317    3.0105708 
O     0.4432614    3.3119602    2.6969397 
O    -1.6510910    2.6052955    3.3748980 
