27
Energy = -739.2887156722
N    -3.3791262    0.0946885   -1.7461964 
C    -2.7691404    0.0996011   -0.4338862 
C    -3.4727306   -0.9090434    0.4660475 
C    -1.2812157   -0.2496082   -0.4743542 
O    -0.8251535   -1.0202571   -1.3001445 
N    -0.5207172    0.3337941    0.4775503 
C     0.8537629   -0.0272727    0.7007259 
C     1.7778011    0.4160046   -0.4328603 
C     3.0587010   -0.3940260   -0.4729197 
O     3.1148655   -1.5423518   -0.0918454 
N     4.1236251    0.2512826   -1.0060690 
C     1.2512101    0.5636112    2.0332913 
O     0.4907787    1.1243354    2.7793016 
O     2.5476012    0.4072791    2.2959239 
H    -3.1224766   -0.7708316   -2.2094713 
H    -2.9853593    0.8342219   -2.3145541 
H    -2.8878658    1.1002419   -0.0053466 
H    -3.3604500   -1.9144533    0.0547196 
H    -3.0577707   -0.9068163    1.4754277 
H    -4.5352728   -0.6733980    0.5169112 
H    -0.9463625    0.8946627    1.1990133 
H     0.9652933   -1.1164505    0.7737102 
H     1.2484303    0.2037332   -1.3649568 
H     1.9755263    1.4893574   -0.3892966 
H     4.9704253   -0.2686319   -1.1522566 
H     4.0535201    1.1818066   -1.3705487 
H     2.7119005    0.7986206    3.1627837 
