39
Energy = -954.3642740947
N    -0.7775848   -1.0329848   -1.2666069 
C    -0.9304115    0.2960112   -0.7001184 
C    -1.6388652    0.2580841    0.6519249 
C    -3.0513787   -0.3227014    0.6265183 
C    -3.6343556   -0.3078312    2.0324760 
C    -3.9646668    0.4139589   -0.3425562 
C     0.4054722    1.0074592   -0.5516230 
O     0.4973616    2.1943287   -0.8427100 
N     1.4854584    0.3443643   -0.0888261 
C     2.7312264    1.0831693   -0.0045610 
C     3.7424643    0.0454192    0.4967154 
C     2.8703226   -0.9583553    1.2401831 
C     1.6278720   -1.0321155    0.3678891 
C     3.1235895    1.6277819   -1.3617681 
O     2.9732837    1.0399052   -2.3991313 
O     3.7260485    2.8147739   -1.2679347 
H    -0.4114129   -0.9607564   -2.2077843 
H    -1.6791201   -1.4847427   -1.3364739 
H    -1.4900150    0.9756333   -1.3523981 
H    -1.0387561   -0.3137089    1.3660364 
H    -1.6870282    1.2854022    1.0279272 
H    -2.9879617   -1.3721540    0.3129632 
H    -3.7303275    0.7185007    2.3977995 
H    -2.9980791   -0.8525341    2.7336096 
H    -4.6265756   -0.7630809    2.0540840 
H    -4.0226423    1.4754530   -0.0859709 
H    -4.9769492    0.0064555   -0.3055481 
H    -3.6182813    0.3428676   -1.3752856 
H     2.6299134    1.9242788    0.6842404 
H     4.2191876   -0.4406122   -0.3575552 
H     4.5185407    0.4991169    1.1106717 
H     2.6110558   -0.5758586    2.2306156 
H     3.3503669   -1.9287622    1.3651213 
H     0.7410375   -1.3672267    0.8974564 
H     1.7751550   -1.7053682   -0.4798536 
H     3.9355852    3.0952566   -2.1677234 
C     0.6572783    2.1889885   -3.7416104 
O     0.0803634    1.1848569   -3.7591917 
O     1.2150635    3.2002925   -3.7724194 
