34
Energy = -913.8721596617
N     2.1725040    1.5812201    0.8300570 
C     1.0242747    0.9872476    0.1775925 
C     1.5763994    0.3960044   -1.1459436 
C     3.0705323    0.7272480   -1.1180917 
C     3.3552675    0.8730920    0.3651319 
C     0.3735292   -0.0960286    1.0377104 
O     0.9114782   -0.5241203    2.0447197 
N    -0.8278421   -0.5721577    0.6320684 
C    -1.6078999   -0.0832589   -0.4767309 
C    -2.6938944   -1.1584026   -0.6357898 
C    -2.9061380   -1.6348261    0.7960634 
C    -1.5020411   -1.6295406    1.3796662 
C    -2.2532988    1.2601660   -0.1849892 
O    -2.4091136    1.7469017    0.8996360 
O    -2.6737245    1.8416026   -1.3181016 
H     2.0685762    1.5221878    1.8344559 
H     0.2755225    1.7617538   -0.0192979 
H     1.0777687    0.8156723   -2.0197716 
H     1.4255109   -0.6856831   -1.1699550 
H     3.2561409    1.6781086   -1.6205575 
H     3.6783752   -0.0390633   -1.5994995 
H     3.4703140   -0.1163486    0.8308633 
H     4.2557287    1.4552661    0.5701721 
H    -1.0191127    0.0186915   -1.3886839 
H    -3.5921312   -0.7743137   -1.1174368 
H    -2.2955865   -1.9639434   -1.2557683 
H    -3.5347873   -0.9267992    1.3392865 
H    -3.3767990   -2.6155849    0.8489153 
H    -0.9860074   -2.5812080    1.2200481 
H    -1.4756433   -1.4125773    2.4456528 
H    -3.1036243    2.6696338   -1.0700917 
C    -1.0475967    1.5388617    3.5046029 
O    -1.8029831    0.7476865    3.8810444 
O    -0.2898244    2.3392546    3.1543459 
