40
Energy = -1158.635064135
N    -3.5289772   -0.9624684    0.4259356 
C    -3.0399500   -0.1651275   -0.6792003 
C    -3.6457908    1.2270323   -0.6341337 
C    -5.1190192    1.1724546   -0.9742025 
O    -5.5542386    0.4254210   -1.8281294 
N    -5.9086450    2.0403038   -0.3028707 
C    -1.5244935   -0.0568466   -0.8610769 
O    -1.0275198    0.7415222   -1.6369646 
N    -0.7793485   -0.9162897   -0.1377957 
C     0.6478096   -0.9726279   -0.2815526 
C     1.3358179    0.1570165    0.5181856 
C     2.7959377    0.3179753    0.2261396 
C     3.7626844   -0.0554987    1.1520277 
C     5.1124372    0.0845879    0.8646551 
C     5.5116403    0.6000399   -0.3586527 
C     4.5540248    0.9795453   -1.2890605 
C     3.2071528    0.8413955   -0.9969446 
C     1.0979334   -2.3273664    0.2056709 
O     0.4705102   -3.0048199    0.9788244 
O     2.2803296   -2.6818001   -0.2915510 
H    -3.4232103   -1.9551354    0.2800003 
H    -3.1289199   -0.6996221    1.3155566 
H    -3.4119952   -0.6260431   -1.6003738 
H    -3.1475969    1.8489455   -1.3811724 
H    -3.4757929    1.6876378    0.3435504 
H    -6.9011724    1.9801423   -0.4485880 
H    -5.5702862    2.5427718    0.4952335 
H    -1.2071675   -1.5862810    0.4792407 
H     0.9094973   -0.8552882   -1.3348659 
H     0.7994923    1.0669931    0.2430795 
H     1.1693188   -0.0194524    1.5835300 
H     3.4542620   -0.4591381    2.1105912 
H     5.8533589   -0.2080411    1.5989082 
H     6.5649039    0.7109937   -0.5854367 
H     4.8581356    1.3899071   -2.2443885 
H     2.4604272    1.1473427   -1.7222191 
H     2.5213096   -3.5266401    0.1094957 
C    -6.4278517   -1.8365553   -0.2533051 
O    -5.8560349   -2.6110525   -0.8951588 
O    -7.0307398   -1.1037719    0.4085417 
