31
Energy = -1271.695146829
N    -2.5851314   -2.2873710   -0.0907834 
C    -1.9607813   -1.1016913   -0.6294407 
C    -2.9625954    0.0604009   -0.5400162 
S    -2.6056889    1.5208976   -1.5513740 
C    -0.6549348   -0.8555804    0.1365256 
O    -0.2234559   -1.6818275    0.9198390 
N    -0.0067459    0.2976019   -0.1386467 
C     1.1602039    0.6854899    0.6053638 
C     2.4654719    0.4479729   -0.1792094 
O     2.4962913    1.2641626   -1.3306312 
C     2.6664542   -1.0132196   -0.5139340 
C     1.0412494    2.1436248    0.9795656 
O     0.1571410    2.8765334    0.6288851 
O     2.0546581    2.5377078    1.7558289 
H    -1.9132783   -2.7723178    0.4934851 
H    -2.9031990   -2.9089651   -0.8176999 
H    -1.6734807   -1.2185310   -1.6847617 
H    -3.0298891    0.4287225    0.4846323 
H    -3.9453235   -0.3239203   -0.8065399 
H    -2.7003632    0.9183469   -2.7473071 
H    -0.4993753    1.0168055   -0.6584372 
H     1.1978342    0.0911558    1.5225648 
H     3.2869746    0.8011793    0.4463765 
H     1.8387057    0.9317036   -1.9466374 
H     3.6078079   -1.1374567   -1.0492597 
H     2.6810035   -1.6276213    0.3866120 
H     1.8558461   -1.3800163   -1.1480679 
H     1.9338298    3.4805757    1.9227085 
C    -2.5131893    3.8833515    1.0049675 
O    -2.7815608    2.8899095    1.5367090 
O    -2.2716273    4.8860217    0.4852145 
