47
Energy = -1159.347492911
N     2.7600564   -2.7509096   -2.0021281 
C     2.2803290   -1.6551599   -1.1862010 
C     2.6720248   -0.3199084   -1.8232922 
C     4.1569236   -0.0084314   -1.7268743 
C     4.6347784    0.3478441   -0.3220766 
N     3.9142671    1.4576584    0.2703815 
C     2.7861604    1.2826277    1.0297794 
N     2.4522314    0.2460307    1.7111568 
N     1.9223736    2.3566069    1.0120348 
C     0.7647507   -1.6689332   -0.9978264 
O     0.0218621   -2.1390615   -1.8455477 
N     0.3196840   -1.1018032    0.1358968 
C    -1.0899656   -0.9448564    0.3833820 
C    -1.7062764    0.1923534   -0.4420818 
C    -2.9928716    0.7297052    0.1139976 
C    -3.0074183    1.4169509    1.3260787 
C    -4.1756241    1.9290126    1.8606587 
C    -5.3731439    1.7635144    1.1761791 
O    -6.4974120    2.2834534    1.7328059 
C    -5.3810932    1.0857714   -0.0356120 
C    -4.2007568    0.5750938   -0.5528867 
C    -1.7690910   -2.3056618    0.2490311 
O    -1.3615375   -3.3013218    0.7783056 
O    -2.9033929   -2.2705287   -0.4590014 
H     2.1165560   -2.8565587   -2.7806277 
H     2.6952958   -3.6172451   -1.4826508 
H     2.7439353   -1.7330495   -0.1999506 
H     2.3747292   -0.3605845   -2.8747357 
H     2.0891539    0.4886758   -1.3738569 
H     4.3927601    0.8268489   -2.3952756 
H     4.7297918   -0.8676325   -2.0858645 
H     5.6977037    0.5983027   -0.3469500 
H     4.5491675   -0.5102615    0.3448581 
H     3.9035782    2.2832794   -0.3064188 
H     3.1631029   -0.4726814    1.6721385 
H     1.2862828    2.3568272    1.7915462 
H     2.3156224    3.2605778    0.8139381 
H     0.9810595   -0.6837182    0.7906396 
H    -1.1899088   -0.6979002    1.4446052 
H    -1.8357005   -0.1437527   -1.4703259 
H    -0.9605151    0.9922767   -0.4562180 
H    -2.0780185    1.5620000    1.8680423 
H    -4.1771172    2.4621498    2.8028428 
H    -7.2457371    2.0963426    1.1634249 
H    -6.3134007    0.9531952   -0.5758972 
H    -4.2204889    0.0356416   -1.4919275 
H    -3.2447109   -3.1728805   -0.4617963 
