41
Energy = -1117.911255103
N    -3.3533983    0.4839869    1.3402752 
C    -2.7047722   -0.4865436    0.4986264 
C    -2.7358825   -0.0086311   -0.9195556 
C    -3.3846677    1.0419218   -1.5133378 
N    -3.0973670    1.0867244   -2.8508150 
C    -2.2924476    0.0777501   -3.0656443 
N    -2.0422802   -0.6157435   -1.9303696 
C    -1.2589033   -0.8827633    0.8333526 
O    -0.7351213   -1.8356202    0.2705884 
N    -0.6312824   -0.1142449    1.7313384 
C     0.7288746   -0.3253739    2.1411076 
C     1.6930986    0.6984715    1.5174207 
C     1.6959914    0.6876971   -0.0019536 
C     2.2922588   -0.5683213   -0.6139353 
C     2.2794081   -0.5394774   -2.1329632 
N     3.1024687    0.5464605   -2.6439738 
C     0.7930615   -0.2136558    3.6449227 
O    -0.0514027    0.3043984    4.3258954 
O     1.9281037   -0.7179440    4.1371425 
H    -3.3994605    0.2139448    2.3104270 
H    -2.9767071    1.4150496    1.2390979 
H    -3.2644473   -1.4272231    0.5730600 
H    -4.0535353    1.7492890   -1.0511100 
H    -1.8616825   -0.1986734   -4.0154789 
H    -1.4461590   -1.4210261   -1.8155178 
H    -1.1622427    0.5859368    2.2230823 
H     1.0134939   -1.3354274    1.8416524 
H     2.6968762    0.4954633    1.8998507 
H     1.4090955    1.6918560    1.8791568 
H     0.6736260    0.8190354   -0.3714968 
H     2.2553075    1.5536921   -0.3603474 
H     1.7382252   -1.4481692   -0.2781354 
H     3.3243611   -0.6955156   -0.2638395 
H     2.5754760   -1.5286653   -2.5134226 
H     1.2531625   -0.3692264   -2.4726015 
H     4.0834843    0.3457589   -2.4985646 
H     2.9704194    0.6639884   -3.6388057 
H     1.9178517   -0.5679038    5.0908420 
C     0.3830787   -3.6945809   -1.5042617 
O    -0.1932438   -3.1648467   -2.3594967 
O     0.9747288   -4.2450327   -0.6806742 
