32
Energy = -688.5347627004
N    -0.3081752   -2.1664915    0.3272773 
C    -0.6487180   -1.0427525   -0.5390699 
C    -1.8767697   -0.2406728   -0.0454342 
C    -3.0435570   -1.1860440    0.2177991 
C    -2.3014191    0.8728351   -1.0026206 
C    -3.3274417    1.8275782   -0.4132092 
C     0.5798529   -0.1513227   -0.7478876 
O     0.6181015    0.7330390   -1.5885841 
N     1.6129556   -0.4165851    0.0741380 
C     2.8559876    0.2877101   -0.0588528 
C     2.8265727    1.6533059    0.6252887 
C     3.9535498   -0.5784850    0.5053849 
O     3.7867450   -1.6144428    1.0908720 
O     5.1645598   -0.0489053    0.2912185 
H    -0.6009901   -1.9913176    1.2794256 
H    -0.7627929   -3.0152184    0.0283647 
H    -0.8828270   -1.4341081   -1.5344679 
H    -1.5852287    0.2253548    0.9077147 
H    -2.8134391   -1.9480171    0.9627881 
H    -3.3324336   -1.6962156   -0.7063488 
H    -3.9138919   -0.6381238    0.5779202 
H    -1.4226411    1.4334002   -1.3150210 
H    -2.7030644    0.4117844   -1.9127113 
H    -3.5444091    2.6366674   -1.1127525 
H    -4.2756729    1.3403642   -0.1787007 
H    -2.9524721    2.2829260    0.5074938 
H     1.5950913   -1.2965600    0.5725387 
H     3.0645400    0.4468747   -1.1225586 
H     2.0234476    2.2417983    0.1843971 
H     3.7700057    2.1788633    0.4829885 
H     2.6381401    1.5403121    1.6941816 
H     5.8064939   -0.6474514    0.6923279 
