46
Energy = -1050.887552079
N    -3.3146711   -0.3334150    2.2862649 
C    -3.0086629   -0.0577187    0.8928959 
C    -3.9732688    0.9793302    0.3039227 
C    -3.6307475    1.2592069   -1.1538435 
C    -5.4377232    0.5440003    0.4482911 
C    -6.1264680    1.0249930    1.7146754 
C    -1.5727308    0.4346977    0.7453829 
O    -1.1558490    1.3790153    1.3962694 
N    -0.7972927   -0.2396910   -0.1288544 
C     0.5715521    0.1291356   -0.3708652 
C     1.4989279   -0.4445373    0.7264946 
C     2.9345313   -0.0853608    0.5875664 
C     3.9360177   -0.8031018   -0.1461160 
C     3.9287321   -1.9855522   -0.8914007 
C     5.0993191   -2.4051859   -1.4902576 
C     6.2846401   -1.6678323   -1.3600573 
C     6.3235007   -0.4968703   -0.6287631 
C     5.1420827   -0.0758677   -0.0282099 
N     4.8753444    1.0261470    0.7395134 
C     3.5547437    1.0148211    1.1081997 
C     0.9554393   -0.4052370   -1.7272394 
O     0.5017296   -1.4166052   -2.1985913 
O     1.8698583    0.3462678   -2.3348584 
H    -2.7476416   -1.1016026    2.6224254 
H    -3.0495650    0.4776815    2.8349472 
H    -3.1365545   -0.9903023    0.3304368 
H    -3.8218570    1.9052218    0.8715379 
H    -3.7471680    0.3577084   -1.7633699 
H    -2.6079295    1.6190279   -1.2780982 
H    -4.2995794    2.0190041   -1.5608989 
H    -5.4946709   -0.5480889    0.3921280 
H    -5.9916985    0.9204942   -0.4171936 
H    -5.6451005    0.6108312    2.5992999 
H    -7.1772042    0.7269666    1.7259163 
H    -6.0925839    2.1155788    1.7836807 
H    -1.1598851   -1.0201602   -0.6513790 
H     0.6578516    1.2161345   -0.3615335 
H     1.3750678   -1.5309036    0.7313175 
H     1.0987262   -0.0669522    1.6685462 
H     3.0187080   -2.5641756   -1.0025847 
H     5.1069800   -3.3204205   -2.0692547 
H     7.1872928   -2.0240682   -1.8408289 
H     7.2416331    0.0699919   -0.5295738 
H     5.5438781    1.7216954    1.0100718 
H     3.1458166    1.8013636    1.7231497 
H     2.1362790   -0.1159653   -3.1400617 
