40
Energy = -1104.497166369
N     3.9585390   -0.5062039    1.2546078 
C     3.0825282    0.6119545    0.9365002 
C     3.4255580    1.0878235   -0.4812340 
O     4.8059038    1.3412482   -0.5494459 
C     2.6803546    2.3389494   -0.8774482 
C     1.5894940    0.3682068    1.1115399 
O     0.8952092    1.0836193    1.8118982 
N     1.0754043   -0.6864648    0.4347315 
C    -0.3304546   -0.9766889    0.4859422 
C    -1.1252088   -0.0649288   -0.4772192 
C    -2.6120586   -0.1934875   -0.3558039 
C    -3.3568905   -0.8655016   -1.3180970 
C    -4.7309352   -1.0010941   -1.1847867 
C    -5.3773123   -0.4651434   -0.0817851 
C    -4.6432224    0.2108967    0.8829721 
C    -3.2716703    0.3465794    0.7450689 
C    -0.5308274   -2.4241800    0.1186009 
O     0.1867385   -3.0368543   -0.6321126 
O    -1.6115574   -2.9509078    0.6855641 
H     3.9250921   -0.7348039    2.2377015 
H     3.7229437   -1.3388518    0.7304796 
H     3.3186914    1.4281407    1.6218418 
H     3.1633598    0.2770650   -1.1826550 
H     5.2171759    0.6602971   -0.0008893 
H     2.8903612    3.1442879   -0.1718834 
H     2.9990504    2.6575342   -1.8699088 
H     1.6028079    2.1684308   -0.8977377 
H     1.6431470   -1.2434501   -0.1833918 
H    -0.6901758   -0.8021557    1.5004424 
H    -0.8141646    0.9517500   -0.2299788 
H    -0.7991082   -0.2764376   -1.4982791 
H    -2.8547037   -1.2840697   -2.1839270 
H    -5.2976336   -1.5233950   -1.9461963 
H    -6.4503191   -0.5679987    0.0237948 
H    -5.1426399    0.6388938    1.7437199 
H    -2.7010404    0.8822294    1.4964144 
H    -1.7120294   -3.8485055    0.3429011 
C     2.7031405   -3.4801899   -1.8849225 
O     3.1360079   -2.6119191   -1.2479934 
O     2.3042549   -4.3462947   -2.5318958 
