37
Energy = -1082.236254917
N    -3.2273364    0.4499801    2.0671153 
C    -2.2761604   -0.3937510    1.3815928 
C    -1.9184660    0.2035482    0.0395677 
O    -1.9454741    1.4046714   -0.1638572 
N    -1.5154867   -0.6898466   -0.8901890 
C    -1.0244837   -0.2947453   -2.1762061 
C     0.5223858   -0.2865754   -2.2552338 
C     1.1385181    0.5524920   -1.1938562 
C     1.4602844    0.1472491    0.1435345 
C     1.3917433   -1.0653454    0.8352267 
C     1.7815150   -1.1062659    2.1584350 
C     2.2426650    0.0445092    2.8135975 
C     2.3302233    1.2553892    2.1560093 
C     1.9381518    1.2917971    0.8224185 
N     1.9105799    2.3295387   -0.0702559 
C     1.4296263    1.8842480   -1.2725588 
C    -1.5585412   -1.2487557   -3.2147574 
O    -1.9967130   -2.3422346   -2.9768856 
O    -1.4344947   -0.7613115   -4.4543287 
H    -3.1248285    0.3633038    3.0676976 
H    -3.0238138    1.4123539    1.8248460 
H    -1.3121703   -0.5100750    1.9015411 
H    -2.6826546   -1.4009101    1.2395020 
H    -1.6498972   -1.6739167   -0.7298334 
H    -1.3886641    0.7142008   -2.3760132 
H     0.8077336    0.0698308   -3.2466095 
H     0.8787231   -1.3178547   -2.1708254 
H     1.0351134   -1.9618103    0.3418142 
H     1.7323602   -2.0408533    2.7035436 
H     2.5367834   -0.0179721    3.8538755 
H     2.6873504    2.1429794    2.6644851 
H     2.1824701    3.2745538    0.1229854 
H     1.3078196    2.5651219   -2.0999195 
H    -1.7472554   -1.4446510   -5.0604804 
C    -0.9650881    3.6922365    1.1401386 
O    -1.1928249    3.2123138    2.1679439 
O    -0.7164791    4.2197123    0.1411538 
