29
Energy = -798.4436708825
N    -3.3520397    1.5976843   -1.2882377 
C    -2.9531044    0.4640628   -0.4874641 
C    -1.4689151    0.2139235   -0.6709469 
O    -0.8947680    0.5062651   -1.7029700 
N    -0.8581443   -0.3793947    0.3786986 
C     0.5215236   -0.7855999    0.3424874 
C     1.4098832    0.0887397    1.2507142 
C     1.3535176    1.5364296    0.7905100 
C     2.8459187   -0.4118249    1.2919809 
C     0.5968647   -2.2333004    0.7730789 
O    -0.0250759   -2.6989961    1.6933891 
O     1.4461743   -2.9541136    0.0378868 
H    -4.3150909    1.5211800   -1.5794082 
H    -2.7693802    1.6162021   -2.1177865 
H    -3.4469188   -0.4822039   -0.7612894 
H    -3.1712285    0.6363071    0.5712452 
H    -1.3897384   -0.5924749    1.2074938 
H     0.8592866   -0.6924161   -0.6904078 
H     0.9866668    0.0206160    2.2600508 
H     1.7712446    1.6387188   -0.2135180 
H     1.9324727    2.1686820    1.4659676 
H     0.3319853    1.9148386    0.7643278 
H     2.9275739   -1.4169619    1.7086099 
H     3.4546207    0.2513066    1.9083921 
H     3.2814929   -0.4285780    0.2898996 
H     1.4516322   -3.8482783    0.4043523 
C    -2.1645901   -2.2509925    3.5370135 
O    -2.4248810   -1.2545732    3.0024078 
O    -1.9360255   -3.2346172    4.0932153 
