41
Energy = -806.3821672690
N     1.6594595    0.2976369   -1.9060377 
C     1.6368448   -0.0780645   -0.4986032 
C     1.7368223    1.1536557    0.4050989 
C     3.1495723    1.6160139    0.7756214 
C     3.8555992    0.6098109    1.6737880 
C     4.0189994    1.9706979   -0.4230507 
C     0.3536356   -0.8303234   -0.1529245 
O     0.2504743   -1.4530483    0.8908754 
N    -0.6286156   -0.7051331   -1.0613114 
C    -1.8589197   -1.4332128   -0.9772802 
C    -3.1009419   -0.5485942   -0.7921469 
C    -3.2966253    0.0779429    0.5913086 
C    -3.3657417   -0.9737333    1.6901598 
C    -2.2773597    1.1544923    0.9410559 
C    -2.0227672   -2.2619777   -2.2332818 
O    -1.4098674   -2.1026347   -3.2537851 
O    -2.9687388   -3.2018888   -2.0916921 
H     1.9650980   -0.4684644   -2.4908317 
H     2.2823662    1.0737869   -2.0675546 
H     2.4375594   -0.7770212   -0.2283917 
H     1.1908483    1.9681537   -0.0832617 
H     1.2096027    0.9313328    1.3351779 
H     3.0108486    2.5333683    1.3595534 
H     4.0607086   -0.3247076    1.1457579 
H     3.2504728    0.3658145    2.5488040 
H     4.8132944    1.0040661    2.0200749 
H     3.5367741    2.7078725   -1.0712918 
H     4.2531746    1.0856596   -1.0210195 
H     4.9702767    2.3957668   -0.0963920 
H    -0.3798425   -0.2226191   -1.9146124 
H    -1.7699367   -2.1189655   -0.1316756 
H    -3.0746800    0.2387968   -1.5526783 
H    -3.9766064   -1.1664212   -1.0061029 
H    -4.2772576    0.5658081    0.5354419 
H    -4.0871998   -1.7590984    1.4514731 
H    -2.3898461   -1.4383902    1.8499187 
H    -3.6671198   -0.5192076    2.6360868 
H    -2.6024746    1.7052143    1.8265679 
H    -2.1504969    1.8715724    0.1270072 
H    -1.3047079    0.7189794    1.1688421 
H    -3.0330863   -3.6630368   -2.9369879 
