44
Energy = -994.8537852307
N    -2.3488343    1.2341007   -1.4212993 
C    -1.6795708    0.4310796   -0.4213145 
C    -2.5248010   -0.7710549    0.0087022 
C    -3.8729392   -0.4729855    0.6776777 
C    -4.9778855   -0.1299059   -0.3130850 
C    -3.7588433    0.5932457    1.7575372 
C    -0.3352086   -0.1094419   -0.9120754 
O    -0.1252617   -0.3396596   -2.0879613 
N     0.5806227   -0.3267351    0.0627487 
C     1.8328130   -0.9918543   -0.1789453 
C     3.0376550   -0.0904768    0.1557801 
C     4.3503737   -0.8566809    0.0936356 
C     3.0388275    1.1199233   -0.7737035 
C     3.9759505    2.2305707   -0.3317786 
C     1.8678450   -2.2528452    0.6569820 
O     1.5003739   -2.3163245    1.8025490 
O     2.3651300   -3.3025876   -0.0001591 
H    -2.3856436    0.7014233   -2.2838439 
H    -1.7898365    2.0511301   -1.6334695 
H    -1.4984084    1.0600233    0.4559922 
H    -2.6860721   -1.4061582   -0.8692601 
H    -1.9198209   -1.3614474    0.7043649 
H    -4.1615103   -1.4092273    1.1707461 
H    -5.9371035   -0.0359561    0.2019692 
H    -4.7617893    0.8082353   -0.8232106 
H    -5.0825758   -0.9106117   -1.0706500 
H    -2.9560912    0.3708829    2.4653670 
H    -3.5618211    1.5732481    1.3167589 
H    -4.6906513    0.6701635    2.3214053 
H     0.3195422   -0.1671146    1.0228562 
H     1.8559253   -1.2579091   -1.2366118 
H     2.8873484    0.2615976    1.1845854 
H     5.1919827   -0.1940253    0.2941366 
H     4.4969986   -1.2975295   -0.8954997 
H     4.3931621   -1.6622179    0.8284440 
H     2.0227653    1.5151924   -0.8382211 
H     3.2997956    0.7857273   -1.7834114 
H     5.0195434    1.9113817   -0.3198900 
H     3.7239226    2.5786411    0.6732017 
H     3.9066885    3.0867611   -1.0046625 
H     2.3724264   -4.0469110    0.6160726 
C     0.1458232   -0.9044823    3.8913023 
O    -0.1439635   -0.0640944    3.1452824 
O     0.4149161   -1.7189444    4.6614133 
