43
Energy = -1309.988545373
N     1.8716186   -1.4164891    0.8543784 
C     2.2415305   -0.1610508    0.2308224 
C     2.2679570   -0.1790676   -1.3067982 
C     3.3162091   -1.1254763   -1.7890551 
O     3.1433347   -2.2850399   -2.0700611 
O     4.5342631   -0.5620735   -1.8298517 
C     1.3124954    0.9780439    0.6649432 
O     1.2701170    2.0322416    0.0594324 
N     0.5708301    0.6948897    1.7519657 
C    -0.5682319    1.4838002    2.0900199 
C    -1.8836904    0.6571244    2.0435758 
C    -1.8761995   -0.3716088    0.9689420 
C    -1.7121745   -0.1811371   -0.4455583 
C    -1.5624179    0.9403035   -1.2666313 
C    -1.3916697    0.7591686   -2.6236429 
C    -1.3756835   -0.5231861   -3.1884447 
C    -1.5274667   -1.6514757   -2.4063224 
C    -1.6877045   -1.4665685   -1.0368256 
N    -1.8362997   -2.3816260   -0.0291744 
C    -1.9359964   -1.7214655    1.1685426 
C    -0.4372411    2.1096721    3.4591882 
O     0.3298222    1.7730259    4.3158758 
O    -1.3455152    3.0856182    3.6272092 
H     1.1134894   -1.8575713    0.3467662 
H     2.6413309   -2.0701662    0.8494994 
H     3.2367289    0.1157346    0.5928482 
H     1.2967414   -0.5059398   -1.6814600 
H     2.4638024    0.8314797   -1.6610184 
H     5.1506090   -1.2489343   -2.1128008 
H     0.6828851   -0.2395787    2.1187929 
H    -0.6127938    2.2897493    1.3553410 
H    -2.0250086    0.1532857    3.0038857 
H    -2.7138510    1.3581702    1.9328408 
H    -1.5560320    1.9381277   -0.8477330 
H    -1.2616881    1.6216376   -3.2648293 
H    -1.2420078   -0.6331547   -4.2573756 
H    -1.5323362   -2.6397044   -2.8504753 
H    -1.7940214   -3.3769299   -0.1400707 
H    -2.0379730   -2.2688817    2.0926551 
H    -1.2384367    3.4153747    4.5278645 
C     0.9566056   -3.9864421   -2.3360718 
O     0.7515337   -4.0003765   -1.1946208 
O     1.1156098   -4.0095974   -3.4788116 
