42
Energy = -931.8562878854
N     3.0310156   -0.3860585   -0.7624945 
C     2.4101311    0.2771019    0.3733113 
C     2.3263040    1.8190231    0.3193536 
C     3.5520953    2.4237240   -0.3503481 
C     2.1669663    2.4136067    1.7135093 
C     1.0339308   -0.3479792    0.6240599 
O     0.1623869    0.2021178    1.2894563 
N     0.8572408   -1.5533830    0.0696264 
C    -0.3789694   -2.2647296    0.2268038 
C    -1.5044290   -1.6902817   -0.6559508 
C    -2.9081259   -1.8364921   -0.0743828 
C    -3.7275718   -0.5635608   -0.2554482 
N    -3.0876739    0.5600420    0.3783964 
C    -2.6309018    1.6369512   -0.3315599 
N    -3.0776105    1.8812396   -1.5072373 
N    -1.7214301    2.3979085    0.3918355 
C    -0.1314802   -3.7176487   -0.0811944 
O     0.8674076   -4.1575520   -0.5830278 
O    -1.1855307   -4.4766665    0.2408264 
H     4.0248619   -0.2120602   -0.7849978 
H     2.6466705   -0.0455157   -1.6350715 
H     3.0107097    0.0136783    1.2536547 
H     1.4427366    2.0805360   -0.2760244 
H     4.4666953    2.1458851    0.1830572 
H     3.6625536    2.1181627   -1.3914556 
H     3.4861622    3.5129997   -0.3332443 
H     2.0511689    3.4980566    1.6578279 
H     3.0612591    2.2104167    2.3110595 
H     1.3074010    1.9973562    2.2330582 
H     1.6247351   -1.9643186   -0.4442167 
H    -0.6980658   -2.1804158    1.2700116 
H    -1.4437495   -2.1162796   -1.6604520 
H    -1.2810974   -0.6286206   -0.7547788 
H    -3.4394412   -2.6825525   -0.5143057 
H    -2.8403181   -2.0545948    0.9974466 
H    -4.7347823   -0.7136083    0.1465830 
H    -3.8358025   -0.3033547   -1.3094685 
H    -2.6403936    0.3975998    1.2637313 
H    -2.6135408    2.6881624   -1.9067001 
H    -1.3154339    3.1484538   -0.1398975 
H    -1.0240369    1.8537490    0.8871477 
H    -0.9718470   -5.3810980   -0.0200999 
