27
Energy = -756.2772067121
N     3.3051733    0.0425108    1.2384519 
C     2.5842268    0.0525423   -0.0154800 
C     3.2671195   -0.8744197   -1.0129329 
C     1.1329347   -0.3936354    0.1347508 
O     0.8212318   -1.3015224    0.8971788 
N     0.2364611    0.2446342   -0.6349793 
C    -1.1487591   -0.1654637   -0.7185442 
C    -1.9634090    0.2268581    0.4713038 
C    -3.0223501    1.0711764    0.6714325 
N    -3.3807052    1.0791922    1.9895070 
C    -2.5512182    0.2547762    2.5804054 
N    -1.6799941   -0.2932940    1.7052161 
C    -1.7138166    0.4255881   -1.9938010 
O    -1.1405669    1.2396239   -2.6657292 
O    -2.9106141   -0.0725934   -2.2906916 
H     2.9132912    0.7227633    1.8773713 
H     3.1798851   -0.8630839    1.6769025 
H     2.6018109    1.0735570   -0.4098302 
H     2.7670795   -0.8588081   -1.9827221 
H     3.2527001   -1.8995637   -0.6372579 
H     4.3043041   -0.5670517   -1.1415841 
H     0.5143619    0.9890034   -1.2560021 
H    -1.1769538   -1.2570668   -0.8204019 
H    -3.5523887    1.6590711   -0.0612084 
H    -2.5403493    0.0197317    3.6333030 
H    -0.8924568   -0.9082078    1.8704868 
H    -3.2067982    0.3536821   -3.1050450 
