29
Energy = -798.4348902558
N     3.3868136    1.0713038    1.5339635 
C     2.9633149    0.6421255    0.2188758 
C     3.8653347   -0.4101086   -0.4297528 
C     1.5674724    0.0541660    0.3531221 
O     1.2333811   -0.5954020    1.3285393 
N     0.7461668    0.2531012   -0.6970334 
C    -0.5511984   -0.3612222   -0.7523376 
C    -1.5847281    0.4085086    0.0879240 
C    -2.7898860   -0.4196500    0.4813595 
C    -3.7862341    0.3704890    1.2768109 
O    -3.7418134    1.5513863    1.4881802 
O    -4.7810168   -0.4099394    1.7347135 
C    -0.9518475   -0.4298497   -2.2056925 
O    -0.3932926    0.1548713   -3.0948790 
O    -2.0257296   -1.2018722   -2.4055527 
H     3.0460267    0.4004870    2.2136305 
H     4.3950280    1.0987245    1.5958830 
H     2.9102685    1.5142454   -0.4436337 
H     4.8825771   -0.0230039   -0.5182359 
H     3.5209496   -0.6800912   -1.4310112 
H     3.8897566   -1.3114764    0.1855525 
H     1.0490868    0.7625547   -1.5110437 
H    -0.4737191   -1.3795202   -0.3586340 
H    -1.8942577    1.3149881   -0.4364634 
H    -1.0647300    0.7309278    0.9897595 
H    -2.4914667   -1.2869693    1.0769267 
H    -3.3153895   -0.8231632   -0.3874540 
H    -5.3804846    0.1663345    2.2244464 
H    -2.2303829   -1.1619455   -3.3485634 
