42
Energy = -919.4061130251
N     2.5222751   -1.2827389    1.7786037 
C     2.1962164    0.0283087    1.2647755 
C     2.9489852    0.2909683   -0.0373039 
C     4.4686903    0.2061212    0.0628538 
C     5.0306309    1.2100437    1.0576323 
C     5.0819728    0.4097353   -1.3150165 
C     0.7216769    0.3511632    1.0231289 
O     0.3514453    1.4910969    0.7986212 
N    -0.1328258   -0.6917711    1.0561806 
C    -1.5366960   -0.5166136    0.8198006 
C    -1.8381827   -0.3909937   -0.6915247 
C    -3.2303148    0.0609314   -1.0083605 
C    -3.6103705    1.3751631   -0.7482288 
C    -4.8988456    1.8047582   -1.0199464 
C    -5.8270710    0.9261944   -1.5615619 
C    -5.4564614   -0.3820816   -1.8310670 
C    -4.1661900   -0.8094375   -1.5541371 
C    -2.2507196   -1.7037804    1.4150576 
O    -1.7275762   -2.7682012    1.6244502 
O    -3.5360543   -1.4569440    1.6597761 
H     2.3973644   -2.0173646    1.0961108 
H     2.0300577   -1.5182915    2.6274696 
H     2.5145248    0.7712394    2.0020746 
H     2.6567851    1.2812761   -0.3963519 
H     2.5980701   -0.4290780   -0.7883960 
H     4.7296054   -0.7971368    0.4139669 
H     4.7307365    2.2286888    0.7941206 
H     4.6899151    1.0087050    2.0743881 
H     6.1220509    1.1759555    1.0661854 
H     6.1689041    0.3105625   -1.2814697 
H     4.8510113    1.4076403   -1.6991929 
H     4.7002179   -0.3188040   -2.0342763 
H     0.1905779   -1.6212935    1.2663286 
H    -1.8730596    0.3980623    1.3119089 
H    -1.6201829   -1.3477553   -1.1719925 
H    -1.1177098    0.3398494   -1.0634252 
H    -2.8833187    2.0661143   -0.3343378 
H    -5.1788064    2.8307727   -0.8138223 
H    -6.8336962    1.2626983   -1.7774919 
H    -6.1727789   -1.0724424   -2.2601142 
H    -3.8798587   -1.8339245   -1.7669780 
H    -3.9310949   -2.2776961    1.9804615 
