39
Energy = -1062.596653121
N     2.7732931   -1.4239731   -0.6598940 
C     2.1870814   -1.3690967    0.6779294 
C     2.4387938   -0.0289581    1.2782578 
C     2.6458116    0.3833898    2.5669087 
N     2.7725401    1.7439554    2.6223830 
C     2.6454477    2.1550737    1.3865648 
N     2.4419650    1.1230476    0.5341432 
C     0.6769831   -1.6432453    0.6193473 
O     0.0998864   -2.2136157    1.5234811 
N     0.0710991   -1.1786593   -0.4867717 
C    -1.3222728   -1.3995689   -0.7544601 
C    -2.2885864   -0.5301466    0.0688994 
C    -2.3038024    0.9891698   -0.1182569 
C    -2.8126736    1.4367648   -1.4825948 
C    -0.9806995    1.6687496    0.2074409 
C    -1.5151584   -1.3039637   -2.2469760 
O    -0.6656210   -0.9659086   -3.0318324 
O    -2.7443352   -1.6648057   -2.6183350 
H     2.6809495   -2.3527898   -1.0515943 
H     3.7632986   -1.2197270   -0.6050473 
H     2.5724112   -2.1246127    1.3697228 
H     2.7018925   -0.2311802    3.4513681 
H     2.6990750    3.1791279    1.0510981 
H     2.3072179    1.1747254   -0.4621192 
H     0.6419644   -0.8163025   -1.2326861 
H    -1.5620445   -2.4340354   -0.4804736 
H    -2.0530578   -0.7572265    1.1107029 
H    -3.2942608   -0.9166744   -0.1161725 
H    -3.0329265    1.3372399    0.6230822 
H    -2.0927587    1.2162037   -2.2743241 
H    -2.9677275    2.5175652   -1.4916071 
H    -3.7605597    0.9588969   -1.7380461 
H    -1.1197879    2.7495495    0.2810689 
H    -0.2422983    1.4894590   -0.5749644 
H    -0.5610449    1.3178322    1.1517543 
H    -2.7910231   -1.5718170   -3.5779047 
C     2.1646148    0.1378270   -3.2626322 
O     1.8295402    1.0492035   -2.6272349 
O     2.5132763   -0.7487714   -3.9122186 
