38
Energy = -954.0929604000
N    -1.1425322    1.4357623    0.8787450 
C    -1.8888226    0.5434478    0.0107062 
C    -2.8604308    1.4802744   -0.6857815 
C    -3.2466548    2.4394594    0.4334276 
C    -1.9455087    2.6069269    1.2212314 
C    -0.9157124   -0.1355425   -0.9445488 
O    -0.4067971    0.4339137   -1.8879458 
N    -0.6260355   -1.4200483   -0.6139284 
C     0.4423500   -2.1338033   -1.2394479 
C     1.6652691   -2.3026851   -0.3027500 
C     1.9817378   -1.0360157    0.4347884 
C     2.4031763    0.1068747   -0.2365658 
C     2.6188113    1.2942139    0.4378070 
C     2.4150106    1.3632339    1.8106104 
O     2.5920589    2.5067974    2.5178823 
C     2.0085601    0.2301975    2.5018197 
C     1.7930494   -0.9505439    1.8099302 
C    -0.0204040   -3.4994169   -1.6815862 
O    -0.9826908   -4.0740162   -1.2511379 
O     0.8144499   -4.0370331   -2.5815065 
H    -0.6934730    0.9823881    1.6573663 
H    -2.4508499   -0.2291967    0.5641216 
H    -2.3210708    1.9944911   -1.4832527 
H    -3.7089043    0.9536776   -1.1225420 
H    -3.6411852    3.3870072    0.0660124 
H    -4.0146422    1.9847253    1.0644614 
H    -1.4221144    3.5215253    0.9224325 
H    -2.1331082    2.6791457    2.2970491 
H    -1.1141007   -1.8559379    0.1485308 
H     0.7329950   -1.5483203   -2.1129009 
H     1.4507147   -3.0938185    0.4214110 
H     2.5103616   -2.6423281   -0.9054715 
H     2.5343164    0.0844719   -1.3118163 
H     2.9242573    2.1796464   -0.1097343 
H     2.8322111    3.2145058    1.9170348 
H     1.8627041    0.2887805    3.5730592 
H     1.4662640   -1.8287478    2.3567899 
H     0.4868401   -4.9241124   -2.7757006 
