37
Energy = -1065.220394557
N     4.4156170   -0.6265290   -1.3732901 
C     3.8232351    0.2342404   -0.3720669 
C     4.3430415    1.6553788   -0.5421388 
C     2.2997939    0.2690554   -0.4489886 
O     1.7093973    0.2995003   -1.5185860 
N     1.6407488    0.2936909    0.7248476 
C     0.2084941    0.4078428    0.7680202 
C    -0.4801355   -0.9479911    0.4775583 
C    -1.9131011   -0.8322233    0.0596433 
C    -2.2286763   -0.3468982   -1.2056782 
C    -3.5453992   -0.2187362   -1.6127976 
C    -4.5770621   -0.5809255   -0.7540580 
O    -5.8848942   -0.4794082   -1.1011224 
C    -4.2789060   -1.0732772    0.5095035 
C    -2.9574868   -1.1927064    0.9031894 
C    -0.1668091    0.9226467    2.1333416 
O     0.5521586    0.8622015    3.0974865 
O    -1.3992363    1.4260925    2.1668122 
H     4.0624659   -0.3629974   -2.2867875 
H     4.1312032   -1.5869853   -1.2284430 
H     4.1205825   -0.1368122    0.6144294 
H     4.0476726    2.0427206   -1.5193872 
H     5.4310210    1.6542475   -0.4839897 
H     3.9446434    2.3225284    0.2241246 
H     2.1281014    0.2864682    1.6064170 
H    -0.1163352    1.1197019    0.0067067 
H     0.1014563   -1.3932564   -0.3309827 
H    -0.3763908   -1.5960695    1.3513158 
H    -1.4311553   -0.0716659   -1.8880528 
H    -3.7718433    0.1567777   -2.6057740 
H    -5.9487024   -0.1355429   -1.9939055 
H    -5.0894167   -1.3591686    1.1676270 
H    -2.7348265   -1.5791088    1.8919505 
H    -1.5797135    1.6833002    3.0799645 
C     1.3954814   -0.2957375   -4.1877523 
O     2.5298811   -0.4719295   -4.3359363 
O     0.2549111   -0.1333382   -4.0911158 
