31
Energy = -1325.841801514
N     2.5815002    1.7407730    0.3695258 
C     1.6936125    0.7351641   -0.1850159 
C     1.9684073   -0.6367527    0.4505006 
C     3.2355835   -1.2882890   -0.0657350 
O     3.2330928   -2.4072371   -0.5468618 
N     4.3453392   -0.5330691    0.0617026 
C     0.2245889    1.0653740    0.0519600 
O    -0.1337779    1.7856631    0.9637477 
N    -0.6478718    0.4733471   -0.7994752 
C    -2.0410082    0.4493590   -0.4783221 
C    -2.8717224   -0.0740062   -1.6470868 
S    -2.3774572   -1.7008517   -2.2724627 
C    -2.3075499   -0.3908812    0.7631531 
O    -1.5763878   -1.2342612    1.1982358 
O    -3.5044155   -0.1017479    1.2896417 
H     2.1952880    2.0365165    1.2613216 
H     2.5804169    2.5651326   -0.2174818 
H     1.8712024    0.6612517   -1.2607751 
H     2.0360382   -0.5043348    1.5340931 
H     1.1488473   -1.3276803    0.2641370 
H     4.2334843    0.4439519    0.3038450 
H     5.1980769   -0.8722482   -0.3468777 
H    -0.3091245   -0.2470247   -1.4216234 
H    -2.3742885    1.4645232   -0.2504224 
H    -2.7484987    0.5974737   -2.4975544 
H    -3.9254148   -0.0815987   -1.3739518 
H    -2.5625110   -2.3871351   -1.1334637 
H    -3.6254215   -0.6748146    2.0570125 
C     1.1582522   -2.6165844   -2.5450974 
O     1.2375174   -1.4651932   -2.6717673 
O     1.0456049   -3.7598546   -2.4537767 
