39
Energy = -1062.587437143
N     1.1517475    0.1870395   -2.0020553 
C     1.2265914   -0.6904136   -0.8544308 
C     1.9490025   -0.0296238    0.3206487 
C     3.4622793    0.1389881    0.1862206 
C     3.8756914    1.2048842   -0.8190231 
C     4.0576250    0.4487180    1.5534838 
C    -0.0966199   -1.2553055   -0.3264518 
O    -0.1240028   -2.1972051    0.4405235 
N    -1.2155105   -0.6230564   -0.7547859 
C    -2.5264234   -1.0409991   -0.3428160 
C    -3.1631765   -0.1322000    0.6571970 
C    -3.7150303   -0.3624415    1.8866413 
N    -4.1918841    0.7993794    2.4250520 
C    -3.9349043    1.7253659    1.5379074 
N    -3.3192790    1.2154444    0.4442821 
C    -3.4261472   -1.1287247   -1.5626476 
O    -3.2922241   -0.4530269   -2.5518065 
O    -4.4128269   -2.0035827   -1.4010574 
H     0.6430037   -0.2070730   -2.7795250 
H     0.7949894    1.1052956   -1.7790187 
H     1.7992379   -1.5787965   -1.1409565 
H     1.4858028    0.9468328    0.5184996 
H     1.7484710   -0.6493339    1.1970814 
H     3.8674206   -0.8240978   -0.1482303 
H     3.5055444    0.9832711   -1.8182182 
H     4.9638598    1.2925892   -0.8588509 
H     3.4794064    2.1813546   -0.5215743 
H     5.1434478    0.5486295    1.4951189 
H     3.6605289    1.3914356    1.9416096 
H     3.8272517   -0.3338802    2.2792678 
H    -1.1364758    0.1006159   -1.4476879 
H    -2.4282648   -2.0270062    0.1135597 
H    -3.7849187   -1.3045821    2.4069217 
H    -4.1663354    2.7748896    1.6340222 
H    -2.9938309    1.7301504   -0.3569325 
H    -4.9768058   -1.9569511   -2.1838043 
C    -2.4385347    2.1232561   -3.3710368 
O    -1.9990415    2.2701595   -2.3047185 
O    -2.8594364    2.0088279   -4.4360338 
