34
Energy = -876.7328706911
N    -0.5921706    0.1282121    1.5387948 
C    -0.4453508   -0.6326889    0.3228387 
C    -1.1405829    0.0838511   -0.8415429 
C    -2.6313488    0.1288545   -0.6947561 
C    -3.2769217    1.2376877   -0.1603272 
C    -4.6551906    1.2538569   -0.0078658 
C    -5.4103769    0.1548815   -0.3879682 
C    -4.7777857   -0.9577449   -0.9237951 
C    -3.4003532   -0.9672932   -1.0757955 
C     0.9717142   -1.0029576   -0.1240506 
O     1.1618220   -1.7449636   -1.0735015 
N     1.9792918   -0.4586662    0.5832110 
C     3.3492313   -0.7411544    0.2787493 
C     3.8735840    0.0692153   -0.8990964 
O     3.8793511    1.4266310   -0.5158226 
C     4.1699064   -0.4802486    1.5212825 
O     3.7305259   -0.0508864    2.5526406 
O     5.4567302   -0.7894643    1.3398364 
H    -0.2112570    1.0614041    1.4737076 
H    -0.2289407   -0.3368061    2.3569125 
H    -0.9489622   -1.5945275    0.4631395 
H    -0.7359922    1.0992091   -0.9132698 
H    -0.8674302   -0.4402500   -1.7581841 
H    -2.6917313    2.0984956    0.1424454 
H    -5.1405847    2.1275723    0.4103793 
H    -6.4871691    0.1661754   -0.2709064 
H    -5.3598621   -1.8189084   -1.2296107 
H    -2.9099436   -1.8369403   -1.5007934 
H     1.7921529    0.1028837    1.3964292 
H     3.4477485   -1.7982284    0.0105790 
H     3.2084208   -0.1173213   -1.7469518 
H     4.8794968   -0.2833509   -1.1501772 
H     4.0947411    1.9647150   -1.2771676 
H     5.9172374   -0.5757443    2.1605371 
