50
Energy = -1215.646165639
N     2.6126536    0.2312932    2.5312817 
C     2.4810492    1.3601943    1.6214940 
C     3.2049632    1.0786351    0.3063492 
C     2.6412027   -0.0936729   -0.4827031 
C     3.4886890   -0.4521113   -1.6894807 
N     4.7640369   -0.9914024   -1.2807067 
C     5.7507500   -1.2452092   -2.2138177 
N     5.7516895   -0.9467774   -3.4527406 
N     6.8346533   -1.9123236   -1.6611036 
C     1.0196518    1.6746585    1.3210060 
O     0.7020754    2.7042361    0.7501954 
N     0.1408042    0.7341946    1.7099202 
C    -1.2602273    0.8441425    1.4166802 
C    -1.5520872    0.4404097   -0.0483900 
C    -2.9755615    0.5564117   -0.4602577 
C    -3.9952046   -0.4445610   -0.3362158 
C    -4.0093033   -1.7587065    0.1399980 
C    -5.1959086   -2.4634396    0.1207037 
C    -6.3755074   -1.8837764   -0.3673062 
C    -6.3925992   -0.5883181   -0.8457606 
C    -5.1960133    0.1197444   -0.8233862 
N    -4.9094129    1.3987281   -1.2195003 
C    -3.5798013    1.6545998   -1.0033610 
C    -2.0083409   -0.0548628    2.3684510 
O    -1.5835022   -1.1069465    2.7699078 
O    -3.2078680    0.4271379    2.6906277 
H     3.5611390   -0.1183950    2.5246271 
H     2.4017111    0.5025790    3.4822642 
H     2.8918547    2.2928673    2.0275851 
H     4.2632136    0.9033320    0.5236487 
H     3.1530880    1.9843319   -0.3015084 
H     2.5351994   -0.9714766    0.1632300 
H     1.6342457    0.1485655   -0.8313462 
H     3.6750840    0.4481163   -2.2824847 
H     2.9410063   -1.1537296   -2.3333376 
H     4.7060660   -1.6931863   -0.5588970 
H     4.8546187   -0.5841150   -3.7519612 
H     7.5954169   -1.9730385   -2.3186649 
H     7.1271742   -1.5624910   -0.7625264 
H     0.5024748   -0.1234988    2.1033331 
H    -1.5746090    1.8784370    1.5575588 
H    -0.9246841    1.0918536   -0.6588207 
H    -1.1956500   -0.5840726   -0.1872953 
H    -3.1055308   -2.2177375    0.5240797 
H    -5.2196097   -3.4827496    0.4859334 
H    -7.2903818   -2.4633288   -0.3705069 
H    -7.3059036   -0.1437184   -1.2230777 
H    -5.5621413    2.0415334   -1.6252608 
H    -3.1532378    2.6130838   -1.2551633 
H    -3.6613255   -0.2516404    3.2069059 
