41
Energy = -1220.477805731
N     1.9478666   -0.0371767   -2.7691847 
C     1.7483583   -0.8555007   -1.5917453 
C     3.0745076   -1.0945053   -0.8566714 
C     3.7326163    0.1893023   -0.3876369 
S     5.2661478   -0.2002901    0.4778799 
C     5.8206185    1.4671231    0.8458351 
C     0.7357262   -0.2377022   -0.6253640 
O     0.4937831    0.9552620   -0.6278401 
N     0.1586469   -1.1063294    0.2367389 
C    -0.6217861   -0.6685831    1.3637587 
C    -2.1279087   -0.8894346    1.1762206 
C    -2.7040338   -0.0761221    0.0325358 
C    -4.1800663   -0.3594319   -0.1887147 
C    -4.8086275    0.5299307   -1.2486712 
N    -4.8150902    1.9206076   -0.8197153 
C    -0.1468981   -1.4243188    2.5816412 
O     0.5189416   -2.4251240    2.5464261 
O    -0.5855414   -0.8773434    3.7196357 
H     1.1903874   -0.1866987   -3.4224776 
H     1.8743456    0.9360271   -2.4907877 
H     1.3729084   -1.8335277   -1.9070489 
H     3.7430106   -1.6131912   -1.5468649 
H     2.9093296   -1.7550947   -0.0000868 
H     3.9619866    0.8254284   -1.2453555 
H     3.0740823    0.7449068    0.2844741 
H     5.9905823    2.0357413   -0.0694668 
H     5.1003440    1.9920859    1.4748652 
H     6.7627584    1.3829580    1.3865181 
H     0.5163983   -2.0470000    0.2940112 
H    -0.4362999    0.3990343    1.5052026 
H    -2.3024645   -1.9583730    1.0081836 
H    -2.6325307   -0.6270816    2.1099355 
H    -2.5632133    0.9895884    0.2245466 
H    -2.1532657   -0.2948835   -0.8871027 
H    -4.3195376   -1.4071493   -0.4757932 
H    -4.7277391   -0.2279402    0.7530909 
H    -4.2137853    0.4661313   -2.1650671 
H    -5.8078805    0.1417996   -1.4953918 
H    -5.4799901    2.0555618   -0.0690148 
H    -5.0945515    2.5321880   -1.5738564 
H    -0.2721362   -1.4362744    4.4417582 
