40
Energy = -1120.792044031
N    -3.6166795    2.9884355    0.8126891 
C    -3.0890690    1.6476276    0.6930365 
C    -3.9094372    0.8881567   -0.3502428 
C    -3.8340823   -0.6031759   -0.2610887 
O    -3.2175623   -1.2426511    0.5585409 
O    -4.5737061   -1.1914080   -1.2040627 
C    -1.6105922    1.6324057    0.2930893 
O    -1.0907117    2.5799684   -0.2727963 
N    -0.9381935    0.4990925    0.5762898 
C     0.3594728    0.2774917   -0.0025078 
C     0.8375860   -1.1279473    0.3594037 
C     2.2208406   -1.4980171   -0.1540635 
C     3.3455507   -0.6230500    0.3757372 
C     4.7177537   -1.0916335   -0.0907871 
N     5.8488783   -0.2997897    0.3571742 
C     0.2812337    0.4515048   -1.5119467 
O    -0.6657410    0.1452362   -2.1865670 
O     1.4069723    0.9628596   -2.0142146 
H    -3.1983679    3.4469636    1.6119646 
H    -3.3108705    3.5241217    0.0068037 
H    -3.2017634    1.1364208    1.6522992 
H    -4.9577716    1.1718527   -0.2241828 
H    -3.6365970    1.1859346   -1.3657401 
H    -4.4774966   -2.1445872   -1.0862034 
H    -1.4946906   -0.3042808    0.8409025 
H     1.0564459    1.0273791    0.3738706 
H     0.8202987   -1.1997875    1.4511490 
H     0.0992512   -1.8420232   -0.0182764 
H     2.2316045   -1.4770757   -1.2482412 
H     2.4140653   -2.5380362    0.1269685 
H     3.3209642   -0.6148818    1.4723678 
H     3.2031911    0.4120849    0.0506439 
H     4.7347553   -1.1150418   -1.1852186 
H     4.8785479   -2.1253531    0.2327437 
H     5.7550152    0.6581991    0.0447729 
H     5.8836936   -0.2717258    1.3681624 
H     1.2608641    1.1046107   -2.9584920 
C    -1.4926150    2.8701790   -3.2505337 
O    -2.6214315    2.7953149   -3.0127030 
O    -0.3731187    2.9660970   -3.5269194 
