29
Energy = -798.4390565229
N     1.8604244    1.2849947    1.5358824 
C     1.0371010    0.7679446    0.4633552 
C     1.6848441   -0.4777057   -0.1444187 
C     3.0389404   -0.1670380   -0.7441579 
C     3.7668734   -1.3890907   -1.2122556 
O     3.4094548   -2.5263025   -1.0628478 
O     4.9155988   -1.0730509   -1.8388883 
C    -0.3660116    0.3940539    0.9399117 
O    -0.5800290    0.0523326    2.0892211 
N    -1.3334532    0.4346401    0.0002957 
C    -2.6618436   -0.0518526    0.2611927 
C    -3.5220998    0.9581826    1.0176991 
C    -3.2847187   -0.4073421   -1.0661770 
O    -2.7989530   -0.1587553   -2.1381123 
O    -4.4616928   -1.0204266   -0.9197322 
H     1.6832115    0.7207636    2.3611220 
H     1.5700810    2.2234203    1.7774375 
H     0.9556918    1.5368201   -0.3130706 
H     1.7929597   -1.2333663    0.6375803 
H     1.0276216   -0.9128099   -0.9010689 
H     2.9590924    0.5233180   -1.5892838 
H     3.6652307    0.3419497   -0.0063029 
H     5.3261280   -1.9078959   -2.0949415 
H    -1.1130016    0.6345219   -0.9626429 
H    -2.5940871   -0.9643977    0.8616478 
H    -4.5104290    0.5473522    1.2204820 
H    -3.6300157    1.8774499    0.4397336 
H    -3.0332998    1.1889007    1.9627574 
H    -4.8033184   -1.1966108   -1.8052181 
