45
Energy = -971.1280584027
N     3.8447931   -1.8784170    0.6063378 
C     2.9878000   -0.7103044    0.7190132 
C     3.5406539    0.4496437   -0.1186822 
C     2.5740019    1.6247931   -0.1431207 
C     4.9211412    0.8566195    0.3884192 
C     5.6902028    1.7499924   -0.5698221 
C     1.5744125   -1.0535721    0.2712686 
O     1.3504456   -1.5409842   -0.8230530 
N     0.5794817   -0.8117662    1.1559115 
C    -0.7688189   -1.2475838    0.8739561 
C    -1.4598160   -0.3911080   -0.1850876 
C    -2.9755768   -0.4175559   -0.0980840 
C    -3.6098366    0.4520001   -1.1730022 
N    -5.0456372    0.5273049   -1.0545786 
C    -5.6438453    1.3869243   -0.1577487 
N    -5.0765196    2.1428671    0.6992391 
N    -7.0259192    1.3830432   -0.2676215 
C    -0.7359346   -2.7510172    0.5946740 
O    -0.0607904   -3.5224696    1.2168637 
O    -1.5803308   -3.1352485   -0.3684435 
H     3.5389214   -2.5997801    1.2474601 
H     3.7315895   -2.2629071   -0.3255333 
H     2.9757822   -0.3972507    1.7702178 
H     3.6423632    0.0656775   -1.1416213 
H     2.3869245    1.9952250    0.8696140 
H     1.6147059    1.3541635   -0.5871835 
H     2.9792300    2.4523487   -0.7255667 
H     4.8033310    1.3639942    1.3538901 
H     5.4939664   -0.0519594    0.5815812 
H     6.6809126    1.9837855   -0.1758280 
H     5.8272080    1.2570343   -1.5355921 
H     5.1814712    2.6986632   -0.7524985 
H     0.8219651   -0.5618055    2.0966093 
H    -1.3269376   -1.1531758    1.8115847 
H    -1.1106111    0.6345879   -0.0360557 
H    -1.1165897   -0.6997155   -1.1735216 
H    -3.3528862   -1.4352969   -0.2068199 
H    -3.2991211   -0.0619165    0.8853381 
H    -3.1634759    1.4563412   -1.1544922 
H    -3.3798773    0.0348473   -2.1553748 
H    -5.5697398    0.3800740   -1.8994528 
H    -4.0694238    2.1433692    0.5890146 
H    -7.4364485    0.4695928   -0.3782802 
H    -7.4514106    1.9128680    0.4757963 
H    -1.4823567   -4.0920262   -0.4497248 
