40
Energy = -1253.692395192
N    -1.8045575    0.6429082    1.8053218 
C    -2.1791804    0.0985210    0.5121852 
C    -2.3067574    1.1192947   -0.6082623 
C    -3.4274321    2.0813420   -0.3686720 
O    -4.2248519    2.0230135    0.5321211 
O    -3.4626868    3.0509910   -1.2947158 
C    -1.2237884   -1.0065823    0.0701258 
O    -1.1952473   -1.4041536   -1.0828411 
N    -0.4528365   -1.5000157    1.0532519 
C     0.6039748   -2.4231785    0.7881906 
C     1.9917599   -1.7329036    0.7931689 
C     2.0020246   -0.5204999   -0.0856718 
C     1.7932569    0.7476422    0.4475759 
C     1.6955577    1.8683719   -0.3594820 
C     1.8105334    1.7339662   -1.7373174 
O     1.6904004    2.8520488   -2.4920797 
C     2.0473700    0.4787195   -2.2859127 
C     2.1355452   -0.6319234   -1.4644175 
C     0.6042248   -3.5301422    1.8132901 
O     0.0668566   -3.4808524    2.8845433 
O     1.3370175   -4.5760845    1.4048460 
H    -1.0593603    1.3206132    1.6974641 
H    -2.5963140    1.1266371    2.2068052 
H    -3.1518898   -0.3869294    0.6389989 
H    -2.4731824    0.6190047   -1.5649123 
H    -1.3763174    1.6816358   -0.7345535 
H    -4.2142434    3.6161417   -1.0771269 
H    -0.5887639   -1.1079797    1.9746419 
H     0.4234106   -2.8447045   -0.2022815 
H     2.2349988   -1.4474016    1.8204330 
H     2.7369331   -2.4627329    0.4719217 
H     1.7013041    0.8612465    1.5225755 
H     1.5350747    2.8533669    0.0606292 
H     1.7218181    2.6155892   -3.4209883 
H     2.1597681    0.3707114   -3.3601301 
H     2.2918204   -1.6064931   -1.9123909 
H     1.3331671   -5.2199428    2.1240477 
C    -0.5562571   -0.9999927   -3.7478987 
O    -1.0918689    0.0261174   -3.7675906 
O    -0.0052384   -2.0155718   -3.7863720 
