29
Energy = -798.4445841752
N    -0.8366816   -1.5764344    0.6512643 
C    -0.9163854   -0.6996802   -0.4934483 
C    -1.9871763    0.3860971   -0.2965677 
C    -1.6956878    1.2484130    0.9241301 
C    -3.3756786   -0.2255718   -0.2209543 
C     0.3765130   -0.0292417   -0.9633909 
O     0.4074216    0.6658735   -1.9636308 
N     1.4826609   -0.2462359   -0.2190001 
C     2.7282517    0.3427597   -0.5959418 
C     3.8098605   -0.0700983    0.3542412 
O     3.6615035   -0.8023283    1.2974663 
O     4.9829552    0.4771879    0.0315791 
H    -0.5389293   -1.1098791    1.4949289 
H    -0.2491484   -2.3817462    0.4998948 
H    -1.2317389   -1.3042807   -1.3502801 
H    -1.9240745    1.0192143   -1.1847858 
H    -1.8014371    0.6779634    1.8510054 
H    -2.4013877    2.0789397    0.9797284 
H    -0.6894303    1.6735450    0.8923319 
H    -4.1328453    0.5512245   -0.0954552 
H    -3.6114228   -0.7797283   -1.1321207 
H    -3.4494030   -0.9167224    0.6201880 
H     1.4597717   -0.8366606    0.5960699 
H     2.6721057    1.4362568   -0.6114119 
H     3.0206640    0.0542566   -1.6109788 
H     5.6298952    0.1715214    0.6796090 
C     2.5014368   -2.5379086    3.2431203 
O     1.4776685   -2.4006047    2.7173149 
O     3.5072760   -2.6933208    3.7871298 
