41
Energy = -1117.905534444
N     1.1300212    0.6649869    1.8193318 
C     0.5928005    0.2949201    0.5296105 
C     1.3993330   -0.8321866   -0.1210229 
C     2.8299796   -0.4672516   -0.5062476 
C     3.8455552   -0.5266343    0.6239982 
C     5.2652054   -0.1917857    0.1786606 
N     5.8814985   -1.0825271   -0.7916297 
C    -0.8602819   -0.1633903    0.6040445 
O    -1.2704640   -0.8622245    1.5249230 
N    -1.6508840    0.2149284   -0.4112754 
C    -3.0157855   -0.2471812   -0.5405140 
C    -3.9726302    0.4398234    0.3780591 
C    -4.9800498    1.3479271    0.1903850 
N    -5.5429565    1.6888292    1.3868713 
C    -4.8855370    1.0006197    2.2879506 
N    -3.9313328    0.2247263    1.7293123 
C    -3.4173747   -0.0582356   -1.9891469 
O    -2.7801374    0.5807002   -2.7820553 
O    -4.5491231   -0.6915522   -2.2826278 
H     1.0186805   -0.1068499    2.4663998 
H     0.6210958    1.4484831    2.2075592 
H     0.6481349    1.1728905   -0.1240006 
H     0.8577115   -1.1488221   -1.0175282 
H     1.3959478   -1.6926293    0.5569360 
H     2.8390817    0.5358145   -0.9496973 
H     3.1445560   -1.1515082   -1.3010799 
H     3.5431178    0.1612327    1.4159346 
H     3.8365156   -1.5330442    1.0619783 
H     5.9136631   -0.1597456    1.0586144 
H     5.2821349    0.8190163   -0.2424161 
H     5.8744147   -2.0364557   -0.4533050 
H     5.3730382   -1.0772647   -1.6652745 
H    -1.3047773    0.7929093   -1.1615097 
H    -3.0341623   -1.3221588   -0.3287274 
H    -5.3361435    1.7624256   -0.7399922 
H    -5.0594494    1.0245697    3.3523544 
H    -3.2425897   -0.3531559    2.1901946 
H    -4.7462851   -0.5165226   -3.2116147 
C    -1.2200329   -1.2229099    4.2772004 
O    -0.0767314   -1.3760000    4.3488332 
O    -2.3674103   -1.0696679    4.2508674 
