34
Energy = -1310.969422153
N    -2.7896653    2.2008380   -0.8610178 
C    -2.6271250    1.1029891    0.0603743 
C    -3.7538806    0.0634184   -0.0200618 
O    -5.0207960    0.6606484    0.1386816 
C    -1.3181555    0.3958986   -0.2378482 
O    -0.9240444    0.2514798   -1.3842407 
N    -0.6652260   -0.1018243    0.8260391 
C     0.5414546   -0.8759137    0.6951292 
C     1.7538764    0.0243267    0.3933373 
C     3.0038989   -0.7160445   -0.0464153 
S     4.3010424    0.3848978   -0.6428297 
C     3.6242629    0.8466311   -2.2422578 
C     0.7127937   -1.6395360    1.9850045 
O     0.1266410   -1.3869779    3.0046686 
O     1.6095822   -2.6227247    1.8824915 
H    -2.4115582    1.9223125   -1.7595984 
H    -3.7757507    2.3965096   -0.9784069 
H    -2.5963311    1.4896517    1.0888262 
H    -3.5931021   -0.7354571    0.7152439 
H    -3.7491554   -0.3835325   -1.0161120 
H    -5.1236386    0.9295279    1.0531974 
H    -1.0056339    0.0465460    1.7625925 
H     0.4274301   -1.5867531   -0.1278430 
H     1.9692659    0.6525447    1.2609499 
H     1.4227659    0.6880017   -0.4059791 
H     3.4528433   -1.2687563    0.7785123 
H     2.7717626   -1.4431902   -0.8282792 
H     4.3362815    1.5331656   -2.6989109 
H     2.6659108    1.3583994   -2.1527046 
H     3.5216958   -0.0277030   -2.8864063 
H     1.6812787   -3.0350910    2.7529176 
C     0.6110384   -0.8956612   -3.4128653 
O     0.3765682   -0.0012915   -4.1045463 
O     0.8778143   -1.8101418   -2.7529061 
