35
Energy = -1026.200551025
N     2.0355500   -0.2324156    1.1108153 
C     2.0280792    0.4023911   -0.1934451 
C     2.7914344   -0.3292510   -1.2849639 
C     4.2636370   -0.3636721   -1.0140244 
O     4.8254657    0.2047324   -0.1137201 
O     4.9211146   -1.1128950   -1.9114316 
C     0.6092646    0.7110584   -0.6683408 
O     0.3709309    1.0004890   -1.8298862 
N    -0.3158616    0.6706522    0.3047952 
C    -1.6615458    1.1252475    0.1063459 
C    -2.6893724   -0.0214021   -0.0181430 
C    -2.4097331   -0.8462023   -1.2628902 
C    -2.7163992   -0.8915847    1.2287170 
C    -2.0344360    2.0443899    1.2461132 
O    -1.4065056    2.1812837    2.2602496 
O    -3.1871675    2.6845801    1.0087139 
H     2.9471727   -0.1244869    1.5337816 
H     1.8520165   -1.2250047    1.0313334 
H     2.4942851    1.3852082   -0.0661553 
H     2.4286230   -1.3534423   -1.4097171 
H     2.6271812    0.1569912   -2.2494135 
H     5.8567540   -1.0709330   -1.6778149 
H     0.0356088    0.5365147    1.2440600 
H    -1.6826854    1.7005858   -0.8233413 
H    -3.6641238    0.4610404   -0.1326682 
H    -1.4279806   -1.3205408   -1.2026683 
H    -2.4318654   -0.2276762   -2.1612492 
H    -3.1554934   -1.6360267   -1.3696874 
H    -1.7494257   -1.3757872    1.3845094 
H    -3.4659922   -1.6776363    1.1258761 
H    -2.9536139   -0.3198872    2.1285123 
H    -3.3700716    3.2286903    1.7847269 
C    -0.1670780   -0.7503040   -3.9940795 
O     0.4590604   -1.5807169   -3.4841063 
O    -0.8018609    0.0483873   -4.5359222 
