40
Energy = -1067.388906267
N     3.3290131    1.5090757   -1.3817740 
C     2.8561826    0.1936193   -0.9817144 
C     3.8093930   -0.3090088    0.1382459 
C     4.4975658    0.9637668    0.6144446 
C     4.5794564    1.7715665   -0.6747738 
C     1.4285839    0.2781424   -0.4734146 
O     0.9369621    1.3193716   -0.0627420 
N     0.7403915   -0.8773495   -0.4698495 
C    -0.5816855   -0.9516773    0.0876503 
C    -1.6450623   -0.3680604   -0.8729245 
C    -2.9302746    0.0075528   -0.2006433 
C    -4.1013854   -0.7068697   -0.4198001 
C    -5.2806581   -0.3475820    0.2161983 
C    -5.2996857    0.7334689    1.0837025 
C    -4.1354181    1.4560182    1.3063145 
C    -2.9601226    1.0970433    0.6671603 
C    -0.8636363   -2.4008830    0.3930033 
O    -0.2443190   -3.3215881   -0.0741083 
O    -1.8973208   -2.5537486    1.2182541 
H     2.6320033    2.1798362   -1.0793269 
H     2.8745381   -0.5073408   -1.8242749 
H     3.2803380   -0.8438615    0.9280936 
H     4.5394380   -0.9978232   -0.2916912 
H     5.4671437    0.7717539    1.0766048 
H     3.8702804    1.4896960    1.3380611 
H     5.4271676    1.4314550   -1.2802891 
H     4.6990200    2.8429326   -0.5128130 
H     1.1490699   -1.7365818   -0.8015036 
H    -0.6146378   -0.3748639    1.0145436 
H    -1.1853011    0.5240664   -1.3002990 
H    -1.8191506   -1.0729022   -1.6892836 
H    -4.0900674   -1.5537372   -1.0974683 
H    -6.1863112   -0.9131285    0.0325966 
H    -6.2193883    1.0162045    1.5811623 
H    -4.1436893    2.3074384    1.9760495 
H    -2.0545977    1.6714675    0.8344457 
H    -2.0438722   -3.5024409    1.3229758 
C     1.0138839    3.7809629    1.1999349 
O     2.0999151    3.9745274    0.8488966 
O    -0.0694486    3.6286846    1.5735637 
