28
Energy = -1232.414507322
N    -1.9956273   -1.5674950    0.1222129 
C    -2.2246754   -0.2167817   -0.3633126 
C    -3.2057460    0.5876449    0.4816717 
O    -2.7641353    0.6702450    1.8186457 
C    -0.9085813    0.5544276   -0.4600473 
O    -0.8855330    1.7745222   -0.5197610 
N     0.1908042   -0.2167150   -0.4812416 
C     1.5154161    0.3434063   -0.5169392 
C     2.1375477    0.3517189    0.8773960 
S     3.7789426    1.0987802    0.9374318 
C     2.3638413   -0.4952428   -1.4536877 
O     2.5465869   -1.6721048   -1.2998825 
O     2.8654233    0.2077760   -2.4689726 
H    -2.0033596   -1.5533525    1.1363566 
H    -2.7330198   -2.1890149   -0.1772409 
H    -2.6103609   -0.2715973   -1.3874886 
H    -4.1686604    0.0715670    0.4932350 
H    -3.3471631    1.5780944    0.0434079 
H    -2.1681504    1.4205002    1.8904366 
H     0.0445488   -1.2112575   -0.3630586 
H     1.4301060    1.3614029   -0.8947211 
H     1.4600465    0.8497488    1.5704395 
H     2.2704960   -0.6763060    1.2187851 
H     3.3942862    2.3321272    0.5723749 
H     3.4005162   -0.3982854   -2.9980382 
C     0.0939574    3.4501705    1.4464016 
O    -0.7946654    3.1223952    2.1138361 
O     1.0028657    3.7984630    0.8247428 
