40
Energy = -1174.934868957
N    -2.0284233    1.6534557    0.3108963 
C    -1.9176808    0.2505198   -0.0371918 
C    -2.3275053   -0.1181894   -1.4633785 
C    -3.7360350    0.3517484   -1.8307071 
C    -4.7565782   -0.0865488   -0.8062606 
O    -5.0033768    0.5782273    0.1837537 
N    -5.3469052   -1.2815467   -1.0357633 
C    -0.5237722   -0.2973170    0.2410170 
O    -0.1769479   -1.4073480   -0.1439303 
N     0.2753100    0.5098516    0.9488978 
C     1.5902072    0.0875847    1.3382434 
C     2.5798898    0.1433647    0.1591858 
C     3.7660870   -0.8003732    0.3057160 
C     4.6554032   -0.6964409   -0.9139496 
O     5.5001672    0.1684834   -1.0260854 
N     4.4177889   -1.6171667   -1.8792616 
C     2.0410186    0.9672162    2.4775115 
O     1.5135556    1.9976938    2.7963577 
O     3.1265057    0.4803410    3.0892754 
H    -1.7234495    2.2467577   -0.4504444 
H    -2.9960063    1.8749572    0.5101275 
H    -2.5683374   -0.2936756    0.6555741 
H    -1.6187113    0.3299743   -2.1677429 
H    -2.2349785   -1.1987968   -1.5800956 
H    -3.7764869    1.4407810   -1.8603871 
H    -3.9936114   -0.0172736   -2.8259871 
H    -5.9748283   -1.6493638   -0.3431665 
H    -5.1096044   -1.8468460   -1.8284609 
H    -0.1054827    1.3839463    1.2877837 
H     1.5413228   -0.9480989    1.6890848 
H     2.9271322    1.1684480    0.0086171 
H     2.0068110   -0.1422732   -0.7236650 
H     3.3995054   -1.8215257    0.4391216 
H     4.3697715   -0.5342196    1.1716112 
H     4.9212691   -1.5361186   -2.7445256 
H     3.6551148   -2.2666118   -1.8151985 
H     3.3782784    1.1194109    3.7679115 
C     0.4675341   -3.2518470   -2.0597175 
O    -0.6318758   -3.3542239   -2.3978122 
O     1.5861907   -3.1895294   -1.7658745 
