34
Energy = -964.1605645707
N     1.9822396   -1.2489110   -0.1713131 
C     1.4387746   -0.3291055    0.7944185 
C     1.8004515    1.1110225    0.4292037 
C     3.2857507    1.3121191    0.1968873 
C     3.7351999    0.8612338   -1.1795221 
O     2.9816240    0.8060876   -2.1325508 
N     5.0562114    0.5931051   -1.2920888 
C    -0.0663005   -0.3688617    1.0463549 
O    -0.5525225    0.1796199    2.0303770 
N    -0.8055043   -1.0086745    0.1303893 
C    -2.2366195   -1.1602968    0.2557645 
C    -3.0010203    0.0889304   -0.0425379 
C    -3.9030273    0.4571185   -1.0042609 
N    -4.2847065    1.7563835   -0.8243857 
C    -3.6227992    2.1708181    0.2278156 
N    -2.8393427    1.1982515    0.7429181 
C    -2.6494828   -2.2983236   -0.6543640 
O    -1.9158436   -2.8231092   -1.4473071 
O    -3.9149464   -2.6620385   -0.4614883 
H     1.7014431   -2.2072643   -0.0341036 
H     1.8522976   -0.9560012   -1.1300950 
H     1.8802786   -0.5499749    1.7734624 
H     1.4505070    1.7565746    1.2342713 
H     1.2677758    1.3982260   -0.4819290 
H     3.8758269    0.8117574    0.9697639 
H     3.5233715    2.3789855    0.2599474 
H     5.3996952    0.2650168   -2.1770931 
H     5.6454066    0.5142413   -0.4853972 
H    -0.3674604   -1.4459770   -0.6655967 
H    -2.4561380   -1.4675581    1.2857162 
H    -4.3063373   -0.1443121   -1.8034708 
H    -3.6758901    3.1598037    0.6556036 
H    -2.1751925    1.2327058    1.5072396 
H    -4.1038201   -3.3815926   -1.0771293 
