41
Energy = -1047.511091972
N     4.0299502   -2.2437094    1.5672394 
C     3.6419848   -1.0017244    0.9195865 
C     4.7351314   -0.6574948   -0.1100248 
O     5.9793429   -0.7028709    0.5389940 
C     4.5725484    0.7057644   -0.7369073 
C     2.2860506   -1.1214126    0.2423581 
O     1.9514821   -2.1532836   -0.3168418 
N     1.5034351   -0.0256403    0.2776699 
C     0.2255684    0.0193205   -0.3822831 
C    -0.8681869   -0.6427625    0.4886365 
C    -2.2241329   -0.6705391   -0.1195660 
C    -3.2371112    0.3387727   -0.0122178 
C    -3.3145812    1.5656391    0.6530122 
C    -4.4679966    2.3151428    0.5400257 
C    -5.5530037    1.8643961   -0.2249885 
C    -5.5068936    0.6558982   -0.8918678 
C    -4.3427129   -0.0959439   -0.7775401 
N    -4.0073477   -1.3084224   -1.3184296 
C    -2.7408567   -1.6497661   -0.9198103 
C    -0.1002442    1.4692202   -0.6392409 
O     0.2578776    2.3686989    0.0771267 
O    -0.8468681    1.6421373   -1.7260782 
H     3.7058148   -3.0130818    0.9894224 
H     3.5781526   -2.3397166    2.4660623 
H     3.6334508   -0.2019564    1.6663074 
H     4.6856171   -1.4279450   -0.8956296 
H     5.9168811   -1.4644557    1.1329097 
H     4.5565777    1.4815685    0.0323463 
H     5.4166534    0.9053313   -1.3969852 
H     3.6559332    0.7694633   -1.3241353 
H     1.7987837    0.8103905    0.7555872 
H     0.2892052   -0.5203479   -1.3275785 
H    -0.5124834   -1.6562113    0.6798467 
H    -0.8903770   -0.1189797    1.4481226 
H    -2.4822975    1.9275296    1.2460202 
H    -4.5410471    3.2668322    1.0517256 
H    -6.4449279    2.4748595   -0.2929612 
H    -6.3477667    0.3104525   -1.4815299 
H    -4.6013259   -1.8710037   -1.8969305 
H    -2.2927068   -2.5780112   -1.2385364 
H    -1.0975732    2.5743619   -1.7611166 
